<?xml version="1.0" encoding="UTF-8"?>

<!-- generated on 2024-07-12 10:42:56 by Eclipse SUMO netconvert Version 1.18.0
<configuration xmlns:xsi="http://www.w3.org/2001/XMLSchema-instance" xsi:noNamespaceSchemaLocation="http://sumo.dlr.de/xsd/netconvertConfiguration.xsd">

    <input>
        <osm-files value="map.osm"/>
    </input>

    <output>
        <output-file value="map.net.xml"/>
    </output>

    <projection>
        <proj.utm value="true"/>
    </projection>

</configuration>
-->

<net version="1.16" junctionCornerDetail="5" limitTurnSpeed="5.50" xmlns:xsi="http://www.w3.org/2001/XMLSchema-instance" xsi:noNamespaceSchemaLocation="http://sumo.dlr.de/xsd/net_file.xsd">

    <location netOffset="-322153.43,-4307477.84" convBoundary="0.00,0.00,1946.17,2044.13" origBoundary="-77.051237,38.898293,-77.028750,38.916680" projParameter="+proj=utm +zone=18 +ellps=WGS84 +datum=WGS84 +units=m +no_defs"/>

    <type id="highway.cycleway" priority="1" numLanes="1" speed="5.56" allow="bicycle" oneway="0" width="2.00"/>
    <type id="highway.footway" priority="1" numLanes="1" speed="2.78" allow="pedestrian" oneway="1" width="2.00"/>
    <type id="highway.pedestrian" priority="1" numLanes="1" speed="2.78" allow="pedestrian" oneway="1" width="2.00"/>
    <type id="highway.primary" priority="12" numLanes="2" speed="27.78" disallow="tram rail_urban rail rail_electric rail_fast ship" oneway="0"/>
    <type id="highway.primary_link" priority="7" numLanes="1" speed="22.22" disallow="tram rail_urban rail rail_electric rail_fast ship" oneway="0"/>
    <type id="highway.residential" priority="3" numLanes="1" speed="13.89" disallow="tram rail_urban rail rail_electric rail_fast ship" oneway="0"/>
    <type id="highway.secondary" priority="11" numLanes="1" speed="27.78" disallow="tram rail_urban rail rail_electric rail_fast ship" oneway="0"/>
    <type id="highway.secondary_link" priority="6" numLanes="1" speed="22.22" disallow="tram rail_urban rail rail_electric rail_fast ship" oneway="0"/>
    <type id="highway.service" priority="1" numLanes="1" speed="5.56" allow="pedestrian delivery bicycle" oneway="0"/>
    <type id="highway.steps" priority="1" numLanes="1" speed="1.39" allow="pedestrian" oneway="1" width="2.00"/>
    <type id="highway.tertiary" priority="10" numLanes="1" speed="22.22" disallow="tram rail_urban rail rail_electric rail_fast ship" oneway="0"/>
    <type id="railway.subway" priority="18" numLanes="1" speed="27.78" allow="rail_urban" oneway="1"/>

    <edge id=":1004839797_0" function="internal">
        <lane id=":1004839797_0_0" index="0" disallow="tram rail_urban rail rail_electric rail_fast ship" speed="6.48" length="8.92" shape="541.11,1060.06 541.46,1062.80 542.38,1064.76 543.87,1065.92 545.94,1066.28"/>
    </edge>
    <edge id=":1004839797_1" function="internal">
        <lane id=":1004839797_1_0" index="0" disallow="tram rail_urban rail rail_electric rail_fast ship" speed="22.22" length="11.98" shape="541.11,1060.06 541.45,1071.97"/>
        <lane id=":1004839797_1_1" index="1" disallow="tram rail_urban rail rail_electric rail_fast ship" speed="22.22" length="11.98" shape="537.92,1060.11 538.25,1072.09"/>
        <lane id=":1004839797_1_2" index="2" disallow="tram rail_urban rail rail_electric rail_fast ship" speed="22.22" length="11.98" shape="534.72,1060.17 535.05,1072.22"/>
    </edge>
    <edge id=":1004839797_4" function="internal">
        <lane id=":1004839797_4_0" index="0" disallow="tram rail_urban rail rail_electric rail_fast ship" speed="13.89" length="13.14" shape="532.90,1064.88 536.35,1065.07 539.42,1065.57 542.50,1066.08 545.94,1066.28"/>
    </edge>
    <edge id=":1004839797_5" function="internal">
        <lane id=":1004839797_5_0" index="0" disallow="tram rail_urban rail rail_electric rail_fast ship" speed="6.89" length="10.10" shape="532.90,1064.88 535.13,1065.30 536.77,1066.63 537.81,1068.90 538.25,1072.09"/>
        <lane id=":1004839797_5_1" index="1" disallow="tram rail_urban rail rail_electric rail_fast ship" speed="6.22" length="8.03" shape="532.90,1064.88 533.73,1065.33 534.37,1066.70 534.81,1069.00 535.05,1072.22"/>
    </edge>
    <edge id=":1004839797_7" function="internal">
        <lane id=":1004839797_7_0" index="0" disallow="tram rail_urban rail rail_electric rail_fast ship" speed="3.65" length="4.67" shape="532.90,1064.88 534.12,1065.66 534.53,1066.45 534.15,1067.26 532.97,1068.08"/>
    </edge>
    <edge id=":1004839834_0" function="internal">
        <lane id=":1004839834_0_0" index="0" disallow="tram rail_urban rail rail_electric rail_fast ship" speed="25.00" length="19.99" shape="663.86,1186.12 670.26,1184.38 675.30,1182.98 679.42,1181.75 683.03,1180.49"/>
    </edge>
    <edge id=":1004839834_1" function="internal">
        <lane id=":1004839834_1_0" index="0" disallow="tram rail_urban rail rail_electric rail_fast ship" speed="20.82" length="14.60" shape="663.86,1186.12 668.00,1185.41 670.91,1185.79 673.85,1186.78 678.08,1187.86"/>
        <lane id=":1004839834_1_1" index="1" disallow="tram rail_urban rail rail_electric rail_fast ship" speed="19.92" length="13.36" shape="664.71,1189.21 668.49,1188.59 671.14,1189.03 673.82,1190.01 677.67,1191.04"/>
    </edge>
    <edge id=":1004839836_0" function="internal">
        <lane id=":1004839836_0_0" index="0" disallow="tram rail_urban rail rail_electric rail_fast ship" speed="22.22" length="5.00" shape="683.21,1180.42 684.59,1179.87 685.51,1179.44 686.40,1178.94 687.67,1178.17"/>
    </edge>
    <edge id=":1004839838_0" function="internal">
        <lane id=":1004839838_0_0" index="0" disallow="tram rail_urban rail rail_electric rail_fast ship" speed="22.22" length="5.30" shape="709.84,1189.95 709.52,1191.49 709.33,1192.55 709.22,1193.62 709.14,1195.19"/>
    </edge>
    <edge id=":10091162853_0" function="internal">
        <lane id=":10091162853_0_0" index="0" disallow="tram rail_urban rail rail_electric rail_fast ship" speed="22.22" length="18.73" shape="379.18,873.59 378.75,854.86"/>
        <lane id=":10091162853_0_1" index="1" disallow="tram rail_urban rail rail_electric rail_fast ship" speed="22.22" length="18.73" shape="382.37,873.52 381.95,854.79"/>
        <lane id=":10091162853_0_2" index="2" disallow="tram rail_urban rail rail_electric rail_fast ship" speed="22.22" length="18.73" shape="385.57,873.44 385.15,854.72"/>
    </edge>
    <edge id=":10572736155_0" function="internal">
        <lane id=":10572736155_0_0" index="0" disallow="tram rail_urban rail rail_electric rail_fast ship" speed="27.78" length="0.30" shape="659.32,1317.63 659.03,1317.57"/>
        <lane id=":10572736155_0_1" index="1" disallow="tram rail_urban rail rail_electric rail_fast ship" speed="27.78" length="0.30" shape="659.97,1314.49 659.67,1314.43"/>
    </edge>
    <edge id=":10572736156_0" function="internal">
        <lane id=":10572736156_0_0" index="0" disallow="tram rail_urban rail rail_electric rail_fast ship" speed="22.22" length="0.10" shape="664.91,1328.60 664.91,1328.60"/>
    </edge>
    <edge id=":10572736157_0" function="internal">
        <lane id=":10572736157_0_0" index="0" disallow="tram rail_urban rail rail_electric rail_fast ship" speed="27.78" length="0.30" shape="614.18,1212.76 614.36,1212.53"/>
        <lane id=":10572736157_0_1" index="1" disallow="tram rail_urban rail rail_electric rail_fast ship" speed="27.78" length="0.30" shape="616.69,1214.74 616.87,1214.51"/>
    </edge>
    <edge id=":11009654067_0" function="internal">
        <lane id=":11009654067_0_0" index="0" allow="pedestrian delivery bicycle" speed="5.56" length="5.06" shape="933.19,1123.59 932.70,1122.16 932.42,1121.08 931.93,1120.19 930.80,1119.36"/>
    </edge>
    <edge id=":11009654067_1" function="internal">
        <lane id=":11009654067_1_0" index="0" allow="pedestrian delivery bicycle" speed="3.65" length="1.44" shape="933.19,1123.59 933.43,1122.17"/>
    </edge>
    <edge id=":11009654067_4" function="internal">
        <lane id=":11009654067_4_0" index="0" allow="pedestrian delivery bicycle" speed="3.65" length="3.23" shape="933.43,1122.17 933.99,1121.48 934.88,1121.51 936.11,1122.28"/>
    </edge>
    <edge id=":11009654067_2" function="internal">
        <lane id=":11009654067_2_0" index="0" allow="pedestrian delivery bicycle" speed="5.56" length="5.04" shape="933.99,1117.71 936.11,1122.28"/>
    </edge>
    <edge id=":11009654067_3" function="internal">
        <lane id=":11009654067_3_0" index="0" allow="pedestrian delivery bicycle" speed="4.15" length="1.36" shape="933.99,1117.71 933.84,1119.05"/>
    </edge>
    <edge id=":11009654067_5" function="internal">
        <lane id=":11009654067_5_0" index="0" allow="pedestrian delivery bicycle" speed="4.15" length="3.90" shape="933.84,1119.05 933.81,1119.32 933.22,1120.13 932.21,1120.14 930.80,1119.36"/>
    </edge>
    <edge id=":11009654126_0" function="internal">
        <lane id=":11009654126_0_0" index="0" disallow="tram rail_urban rail rail_electric rail_fast ship" speed="13.89" length="3.10" shape="670.10,903.91 667.00,903.98"/>
    </edge>
    <edge id=":11009654139_0" function="internal">
        <lane id=":11009654139_0_0" index="0" allow="pedestrian delivery bicycle" speed="6.71" length="4.87" shape="757.19,898.62 757.13,893.75"/>
    </edge>
    <edge id=":11009654139_1" function="internal">
        <lane id=":11009654139_1_0" index="0" allow="pedestrian delivery bicycle" speed="3.65" length="1.44" shape="757.19,898.62 757.97,897.41"/>
    </edge>
    <edge id=":11009654139_4" function="internal">
        <lane id=":11009654139_4_0" index="0" allow="pedestrian delivery bicycle" speed="3.65" length="3.23" shape="757.97,897.41 758.77,897.00 759.57,897.39 760.39,898.58"/>
    </edge>
    <edge id=":11009654139_2" function="internal">
        <lane id=":11009654139_2_0" index="0" allow="pedestrian delivery bicycle" speed="6.71" length="4.87" shape="760.33,893.71 760.39,898.58"/>
    </edge>
    <edge id=":11009654139_3" function="internal">
        <lane id=":11009654139_3_0" index="0" allow="pedestrian delivery bicycle" speed="3.65" length="1.44" shape="760.33,893.71 759.54,894.92"/>
    </edge>
    <edge id=":11009654139_5" function="internal">
        <lane id=":11009654139_5_0" index="0" allow="pedestrian delivery bicycle" speed="3.65" length="3.23" shape="759.54,894.92 758.75,895.33 757.94,894.94 757.13,893.75"/>
    </edge>
    <edge id=":11009654141_0" function="internal">
        <lane id=":11009654141_0_0" index="0" allow="pedestrian delivery bicycle" speed="6.71" length="5.90" shape="753.61,905.68 752.44,911.47"/>
    </edge>
    <edge id=":11009654141_1" function="internal">
        <lane id=":11009654141_1_0" index="0" allow="pedestrian delivery bicycle" speed="3.65" length="1.44" shape="753.61,905.68 752.58,906.70"/>
    </edge>
    <edge id=":11009654141_4" function="internal">
        <lane id=":11009654141_4_0" index="0" allow="pedestrian delivery bicycle" speed="3.65" length="3.23" shape="752.58,906.70 751.72,906.94 751.02,906.39 750.47,905.05"/>
    </edge>
    <edge id=":11009654141_2" function="internal">
        <lane id=":11009654141_2_0" index="0" allow="pedestrian delivery bicycle" speed="6.71" length="5.90" shape="749.30,910.83 750.47,905.05"/>
    </edge>
    <edge id=":11009654141_3" function="internal">
        <lane id=":11009654141_3_0" index="0" allow="pedestrian delivery bicycle" speed="3.65" length="1.44" shape="749.30,910.83 750.32,909.81"/>
    </edge>
    <edge id=":11009654141_5" function="internal">
        <lane id=":11009654141_5_0" index="0" allow="pedestrian delivery bicycle" speed="3.65" length="3.23" shape="750.32,909.81 751.19,909.58 751.89,910.13 752.44,911.47"/>
    </edge>
    <edge id=":11009654154_0" function="internal">
        <lane id=":11009654154_0_0" index="0" allow="pedestrian delivery bicycle" speed="5.56" length="4.71" shape="827.87,1112.95 823.17,1113.10"/>
    </edge>
    <edge id=":11009654154_1" function="internal">
        <lane id=":11009654154_1_0" index="0" allow="pedestrian delivery bicycle" speed="3.65" length="1.44" shape="827.87,1112.95 826.64,1112.19"/>
    </edge>
    <edge id=":11009654154_4" function="internal">
        <lane id=":11009654154_4_0" index="0" allow="pedestrian delivery bicycle" speed="3.65" length="3.23" shape="826.64,1112.19 826.22,1111.40 826.59,1110.59 827.76,1109.75"/>
    </edge>
    <edge id=":11009654154_2" function="internal">
        <lane id=":11009654154_2_0" index="0" allow="pedestrian delivery bicycle" speed="5.56" length="4.71" shape="823.06,1109.91 827.76,1109.75"/>
    </edge>
    <edge id=":11009654154_3" function="internal">
        <lane id=":11009654154_3_0" index="0" allow="pedestrian delivery bicycle" speed="3.65" length="1.44" shape="823.06,1109.91 824.29,1110.67"/>
    </edge>
    <edge id=":11009654154_5" function="internal">
        <lane id=":11009654154_5_0" index="0" allow="pedestrian delivery bicycle" speed="3.65" length="3.23" shape="824.29,1110.67 824.71,1111.45 824.34,1112.26 823.17,1113.10"/>
    </edge>
    <edge id=":11009654155_0" function="internal">
        <lane id=":11009654155_0_0" index="0" allow="pedestrian delivery bicycle" speed="5.56" length="4.63" shape="825.93,1035.74 821.30,1035.85"/>
    </edge>
    <edge id=":11009654155_1" function="internal">
        <lane id=":11009654155_1_0" index="0" allow="pedestrian delivery bicycle" speed="3.65" length="1.44" shape="825.93,1035.74 824.72,1034.97"/>
    </edge>
    <edge id=":11009654155_4" function="internal">
        <lane id=":11009654155_4_0" index="0" allow="pedestrian delivery bicycle" speed="3.65" length="3.23" shape="824.72,1034.97 824.30,1034.18 824.68,1033.37 825.86,1032.54"/>
    </edge>
    <edge id=":11009654155_2" function="internal">
        <lane id=":11009654155_2_0" index="0" allow="pedestrian delivery bicycle" speed="5.56" length="4.63" shape="821.23,1032.65 825.86,1032.54"/>
    </edge>
    <edge id=":11009654155_3" function="internal">
        <lane id=":11009654155_3_0" index="0" allow="pedestrian delivery bicycle" speed="3.65" length="1.44" shape="821.23,1032.65 822.45,1033.42"/>
    </edge>
    <edge id=":11009654155_5" function="internal">
        <lane id=":11009654155_5_0" index="0" allow="pedestrian delivery bicycle" speed="3.65" length="3.23" shape="822.45,1033.42 822.87,1034.21 822.48,1035.02 821.30,1035.85"/>
    </edge>
    <edge id=":11009654197_0" function="internal">
        <lane id=":11009654197_0_0" index="0" allow="pedestrian delivery bicycle" speed="6.71" length="5.20" shape="730.01,979.92 730.02,985.12"/>
    </edge>
    <edge id=":11009654197_1" function="internal">
        <lane id=":11009654197_1_0" index="0" allow="pedestrian delivery bicycle" speed="3.65" length="1.44" shape="730.01,979.92 729.22,981.13"/>
    </edge>
    <edge id=":11009654197_4" function="internal">
        <lane id=":11009654197_4_0" index="0" allow="pedestrian delivery bicycle" speed="3.65" length="3.23" shape="729.22,981.13 728.43,981.54 727.62,981.15 726.81,979.96"/>
    </edge>
    <edge id=":11009654197_2" function="internal">
        <lane id=":11009654197_2_0" index="0" allow="pedestrian delivery bicycle" speed="6.71" length="5.13" shape="726.82,985.09 726.81,979.96"/>
    </edge>
    <edge id=":11009654197_3" function="internal">
        <lane id=":11009654197_3_0" index="0" allow="pedestrian delivery bicycle" speed="3.65" length="1.44" shape="726.82,985.09 727.63,983.89"/>
    </edge>
    <edge id=":11009654197_5" function="internal">
        <lane id=":11009654197_5_0" index="0" allow="pedestrian delivery bicycle" speed="3.65" length="3.23" shape="727.63,983.89 728.43,983.50 729.23,983.91 730.02,985.12"/>
    </edge>
    <edge id=":11009654213_0" function="internal">
        <lane id=":11009654213_0_0" index="0" allow="bicycle" speed="5.56" length="5.03" width="2.00" shape="530.57,1004.43 530.31,999.40"/>
    </edge>
    <edge id=":11009654213_1" function="internal">
        <lane id=":11009654213_1_0" index="0" allow="bicycle" speed="2.89" length="1.25" width="2.00" shape="530.57,1004.43 531.04,1003.66 531.34,1003.49"/>
    </edge>
    <edge id=":11009654213_4" function="internal">
        <lane id=":11009654213_4_0" index="0" allow="bicycle" speed="2.89" length="1.67" width="2.00" shape="531.34,1003.49 531.53,1003.39 532.04,1003.62 532.57,1004.35"/>
    </edge>
    <edge id=":11009654213_2" function="internal">
        <lane id=":11009654213_2_0" index="0" allow="bicycle" speed="5.56" length="5.09" width="2.00" shape="532.30,999.27 532.57,1004.35"/>
    </edge>
    <edge id=":11009654213_3" function="internal">
        <lane id=":11009654213_3_0" index="0" allow="bicycle" speed="2.89" length="1.30" width="2.00" shape="532.30,999.27 531.85,1000.05 531.51,1000.25"/>
    </edge>
    <edge id=":11009654213_5" function="internal">
        <lane id=":11009654213_5_0" index="0" allow="bicycle" speed="2.89" length="1.62" width="2.00" shape="531.51,1000.25 531.37,1000.33 530.86,1000.12 530.31,999.40"/>
    </edge>
    <edge id=":11009654267_0" function="internal">
        <lane id=":11009654267_0_0" index="0" disallow="tram rail_urban rail rail_electric rail_fast ship" speed="13.89" length="3.44" shape="340.13,851.23 342.83,849.10"/>
    </edge>
    <edge id=":11009654280_0" function="internal">
        <lane id=":11009654280_0_0" index="0" disallow="tram rail_urban rail rail_electric rail_fast ship" speed="27.78" length="16.44" shape="395.37,908.95 385.49,895.77"/>
        <lane id=":11009654280_0_1" index="1" disallow="tram rail_urban rail rail_electric rail_fast ship" speed="27.78" length="16.44" shape="397.92,907.02 388.08,893.89"/>
    </edge>
    <edge id=":11009654280_2" function="internal">
        <lane id=":11009654280_2_0" index="0" disallow="tram rail_urban rail rail_electric rail_fast ship" speed="27.78" length="16.34" shape="390.67,892.01 400.47,905.09"/>
    </edge>
    <edge id=":11009654292_0" function="internal">
        <lane id=":11009654292_0_0" index="0" allow="pedestrian delivery bicycle" speed="5.56" length="5.10" shape="321.75,994.44 321.56,989.34"/>
    </edge>
    <edge id=":11009654292_1" function="internal">
        <lane id=":11009654292_1_0" index="0" allow="pedestrian delivery bicycle" speed="3.65" length="1.44" shape="321.75,994.44 322.51,993.21"/>
    </edge>
    <edge id=":11009654292_4" function="internal">
        <lane id=":11009654292_4_0" index="0" allow="pedestrian delivery bicycle" speed="3.65" length="3.23" shape="322.51,993.21 323.29,992.78 324.11,993.15 324.95,994.32"/>
    </edge>
    <edge id=":11009654292_2" function="internal">
        <lane id=":11009654292_2_0" index="0" allow="pedestrian delivery bicycle" speed="5.56" length="5.10" shape="324.76,989.22 324.95,994.32"/>
    </edge>
    <edge id=":11009654292_3" function="internal">
        <lane id=":11009654292_3_0" index="0" allow="pedestrian delivery bicycle" speed="3.65" length="1.44" shape="324.76,989.22 324.00,990.45"/>
    </edge>
    <edge id=":11009654292_5" function="internal">
        <lane id=":11009654292_5_0" index="0" allow="pedestrian delivery bicycle" speed="3.65" length="3.23" shape="324.00,990.45 323.22,990.88 322.40,990.51 321.56,989.34"/>
    </edge>
    <edge id=":11009654295_0" function="internal">
        <lane id=":11009654295_0_0" index="0" disallow="tram rail_urban rail rail_electric rail_fast ship" speed="13.89" length="4.49" shape="377.23,1070.61 381.72,1070.51"/>
    </edge>
    <edge id=":11009654296_0" function="internal">
        <lane id=":11009654296_0_0" index="0" allow="pedestrian delivery bicycle" speed="6.71" length="5.09" shape="335.09,1080.55 335.05,1075.45"/>
    </edge>
    <edge id=":11009654296_1" function="internal">
        <lane id=":11009654296_1_0" index="0" allow="pedestrian delivery bicycle" speed="3.65" length="1.44" shape="335.09,1080.55 335.88,1079.34"/>
    </edge>
    <edge id=":11009654296_4" function="internal">
        <lane id=":11009654296_4_0" index="0" allow="pedestrian delivery bicycle" speed="3.65" length="3.23" shape="335.88,1079.34 336.68,1078.94 337.48,1079.34 338.29,1080.53"/>
    </edge>
    <edge id=":11009654296_2" function="internal">
        <lane id=":11009654296_2_0" index="0" allow="pedestrian delivery bicycle" speed="6.71" length="5.12" shape="338.25,1075.42 338.29,1080.53"/>
    </edge>
    <edge id=":11009654296_3" function="internal">
        <lane id=":11009654296_3_0" index="0" allow="pedestrian delivery bicycle" speed="3.65" length="1.44" shape="338.25,1075.42 337.46,1076.62"/>
    </edge>
    <edge id=":11009654296_5" function="internal">
        <lane id=":11009654296_5_0" index="0" allow="pedestrian delivery bicycle" speed="3.65" length="3.23" shape="337.46,1076.62 336.66,1077.03 335.86,1076.64 335.05,1075.45"/>
    </edge>
    <edge id=":11009654299_0" function="internal">
        <lane id=":11009654299_0_0" index="0" allow="pedestrian delivery bicycle" speed="5.56" length="5.04" shape="395.88,1042.60 390.84,1042.69"/>
    </edge>
    <edge id=":11009654299_1" function="internal">
        <lane id=":11009654299_1_0" index="0" allow="pedestrian delivery bicycle" speed="3.65" length="1.44" shape="395.88,1042.60 394.67,1041.82"/>
    </edge>
    <edge id=":11009654299_4" function="internal">
        <lane id=":11009654299_4_0" index="0" allow="pedestrian delivery bicycle" speed="3.65" length="3.23" shape="394.67,1041.82 394.26,1041.03 394.64,1040.22 395.83,1039.40"/>
    </edge>
    <edge id=":11009654299_2" function="internal">
        <lane id=":11009654299_2_0" index="0" allow="pedestrian delivery bicycle" speed="5.56" length="5.04" shape="390.78,1039.49 395.83,1039.40"/>
    </edge>
    <edge id=":11009654299_3" function="internal">
        <lane id=":11009654299_3_0" index="0" allow="pedestrian delivery bicycle" speed="3.65" length="1.44" shape="390.78,1039.49 392.00,1040.27"/>
    </edge>
    <edge id=":11009654299_5" function="internal">
        <lane id=":11009654299_5_0" index="0" allow="pedestrian delivery bicycle" speed="3.65" length="3.23" shape="392.00,1040.27 392.41,1041.06 392.03,1041.87 390.84,1042.69"/>
    </edge>
    <edge id=":11065841562_0" function="internal">
        <lane id=":11065841562_0_0" index="0" allow="pedestrian delivery bicycle" speed="5.56" length="4.05" shape="432.19,1273.74 432.19,1269.69"/>
    </edge>
    <edge id=":11065841562_1" function="internal">
        <lane id=":11065841562_1_0" index="0" allow="pedestrian delivery bicycle" speed="3.65" length="1.44" shape="432.19,1273.74 432.99,1272.54"/>
    </edge>
    <edge id=":11065841562_4" function="internal">
        <lane id=":11065841562_4_0" index="0" allow="pedestrian delivery bicycle" speed="3.65" length="3.23" shape="432.99,1272.54 433.79,1272.14 434.59,1272.54 435.39,1273.74"/>
    </edge>
    <edge id=":11065841562_2" function="internal">
        <lane id=":11065841562_2_0" index="0" allow="pedestrian delivery bicycle" speed="5.56" length="4.05" shape="435.39,1269.69 435.39,1273.74"/>
    </edge>
    <edge id=":11065841562_3" function="internal">
        <lane id=":11065841562_3_0" index="0" allow="pedestrian delivery bicycle" speed="3.65" length="1.44" shape="435.39,1269.69 434.59,1270.89"/>
    </edge>
    <edge id=":11065841562_5" function="internal">
        <lane id=":11065841562_5_0" index="0" allow="pedestrian delivery bicycle" speed="3.65" length="3.23" shape="434.59,1270.89 433.79,1271.29 432.99,1270.89 432.19,1269.69"/>
    </edge>
    <edge id=":11065841563_0" function="internal">
        <lane id=":11065841563_0_0" index="0" allow="pedestrian delivery bicycle" speed="5.56" length="3.99" shape="461.13,1273.24 461.01,1269.26"/>
    </edge>
    <edge id=":11065841563_1" function="internal">
        <lane id=":11065841563_1_0" index="0" allow="pedestrian delivery bicycle" speed="3.65" length="1.44" shape="461.13,1273.24 461.89,1272.02"/>
    </edge>
    <edge id=":11065841563_4" function="internal">
        <lane id=":11065841563_4_0" index="0" allow="pedestrian delivery bicycle" speed="3.65" length="3.23" shape="461.89,1272.02 462.68,1271.59 463.49,1271.97 464.33,1273.14"/>
    </edge>
    <edge id=":11065841563_2" function="internal">
        <lane id=":11065841563_2_0" index="0" allow="pedestrian delivery bicycle" speed="5.56" length="3.99" shape="464.21,1269.16 464.33,1273.14"/>
    </edge>
    <edge id=":11065841563_3" function="internal">
        <lane id=":11065841563_3_0" index="0" allow="pedestrian delivery bicycle" speed="3.65" length="1.44" shape="464.21,1269.16 463.44,1270.38"/>
    </edge>
    <edge id=":11065841563_5" function="internal">
        <lane id=":11065841563_5_0" index="0" allow="pedestrian delivery bicycle" speed="3.65" length="3.23" shape="463.44,1270.38 462.66,1270.81 461.84,1270.43 461.01,1269.26"/>
    </edge>
    <edge id=":11073912422_0" function="internal">
        <lane id=":11073912422_0_0" index="0" allow="pedestrian delivery bicycle" speed="5.56" length="5.14" shape="915.42,1131.89 914.75,1130.52 914.25,1129.59 913.87,1128.62 913.53,1127.14"/>
    </edge>
    <edge id=":11073912422_1" function="internal">
        <lane id=":11073912422_1_0" index="0" allow="pedestrian delivery bicycle" speed="3.65" length="1.44" shape="915.42,1131.89 915.66,1130.47"/>
    </edge>
    <edge id=":11073912422_4" function="internal">
        <lane id=":11073912422_4_0" index="0" allow="pedestrian delivery bicycle" speed="3.65" length="3.23" shape="915.66,1130.47 916.23,1129.78 917.12,1129.82 918.34,1130.59"/>
    </edge>
    <edge id=":11073912422_2" function="internal">
        <lane id=":11073912422_2_0" index="0" allow="pedestrian delivery bicycle" speed="5.56" length="5.12" shape="916.54,1125.83 916.87,1127.30 917.22,1128.28 917.69,1129.22 918.34,1130.59"/>
    </edge>
    <edge id=":11073912422_3" function="internal">
        <lane id=":11073912422_3_0" index="0" allow="pedestrian delivery bicycle" speed="3.68" length="1.61" shape="916.54,1125.83 916.28,1127.29 916.20,1127.39"/>
    </edge>
    <edge id=":11073912422_5" function="internal">
        <lane id=":11073912422_5_0" index="0" allow="pedestrian delivery bicycle" speed="3.68" length="3.19" shape="916.20,1127.39 915.69,1127.99 914.78,1127.95 913.53,1127.14"/>
    </edge>
    <edge id=":11073912423_0" function="internal">
        <lane id=":11073912423_0_0" index="0" allow="pedestrian delivery bicycle" speed="5.56" length="5.15" shape="907.71,1135.57 905.44,1130.96"/>
    </edge>
    <edge id=":11073912423_1" function="internal">
        <lane id=":11073912423_1_0" index="0" allow="pedestrian delivery bicycle" speed="3.65" length="1.44" shape="907.71,1135.57 907.90,1134.14"/>
    </edge>
    <edge id=":11073912423_4" function="internal">
        <lane id=":11073912423_4_0" index="0" allow="pedestrian delivery bicycle" speed="3.65" length="3.23" shape="907.90,1134.14 908.44,1133.43 909.33,1133.43 910.58,1134.15"/>
    </edge>
    <edge id=":11073912423_2" function="internal">
        <lane id=":11073912423_2_0" index="0" allow="pedestrian delivery bicycle" speed="5.56" length="5.14" shape="908.31,1129.54 910.58,1134.15"/>
    </edge>
    <edge id=":11073912423_3" function="internal">
        <lane id=":11073912423_3_0" index="0" allow="pedestrian delivery bicycle" speed="3.65" length="1.44" shape="908.31,1129.54 908.12,1130.97"/>
    </edge>
    <edge id=":11073912423_5" function="internal">
        <lane id=":11073912423_5_0" index="0" allow="pedestrian delivery bicycle" speed="3.65" length="3.23" shape="908.12,1130.97 907.58,1131.68 906.68,1131.68 905.44,1130.96"/>
    </edge>
    <edge id=":11073912424_0" function="internal">
        <lane id=":11073912424_0_0" index="0" allow="pedestrian delivery bicycle" speed="5.56" length="8.17" shape="832.85,1204.57 831.09,1206.24 829.82,1207.31 828.46,1208.26 826.43,1209.59"/>
    </edge>
    <edge id=":11073912424_1" function="internal">
        <lane id=":11073912424_1_0" index="0" allow="pedestrian delivery bicycle" speed="3.67" length="1.34" shape="832.85,1204.57 831.51,1204.57"/>
    </edge>
    <edge id=":11073912424_4" function="internal">
        <lane id=":11073912424_4_0" index="0" allow="pedestrian delivery bicycle" speed="3.67" length="3.42" shape="831.51,1204.57 831.38,1204.57 830.59,1204.12 830.48,1203.22 831.04,1201.86"/>
    </edge>
    <edge id=":11073912424_2" function="internal">
        <lane id=":11073912424_2_0" index="0" allow="pedestrian delivery bicycle" speed="5.56" length="8.16" shape="824.67,1206.92 826.69,1205.58 828.04,1204.62 829.30,1203.54 831.04,1201.86"/>
    </edge>
    <edge id=":11073912424_3" function="internal">
        <lane id=":11073912424_3_0" index="0" allow="pedestrian delivery bicycle" speed="3.65" length="1.44" shape="824.67,1206.92 826.11,1206.93"/>
    </edge>
    <edge id=":11073912424_5" function="internal">
        <lane id=":11073912424_5_0" index="0" allow="pedestrian delivery bicycle" speed="3.65" length="3.23" shape="826.11,1206.93 826.88,1207.37 826.99,1208.26 826.43,1209.59"/>
    </edge>
    <edge id=":11078023633_0" function="internal">
        <lane id=":11078023633_0_0" index="0" allow="bicycle" speed="2.89" length="2.92" width="2.00" shape="509.05,-0.02 509.56,-0.76 510.07,-1.00 510.56,-0.74 511.05,0.02"/>
    </edge>
    <edge id=":11078023636_0" function="internal">
        <lane id=":11078023636_0_0" index="0" allow="bicycle" speed="5.56" length="6.13" width="2.00" shape="533.85,1052.65 533.90,1058.78"/>
    </edge>
    <edge id=":11078023636_1" function="internal">
        <lane id=":11078023636_1_0" index="0" allow="bicycle" speed="2.89" length="1.30" width="2.00" shape="533.85,1052.65 533.37,1053.42 533.02,1053.61"/>
    </edge>