<?xml version="1.0" encoding="UTF-8"?>

<!-- generated on 2024-07-12 10:45:32 by Eclipse SUMO polyconvert Version 1.18.0
<configuration xmlns:xsi="http://www.w3.org/2001/XMLSchema-instance" xsi:noNamespaceSchemaLocation="http://sumo.dlr.de/xsd/polyconvertConfiguration.xsd">

    <input>
        <net-file value="map.net.xml"/>
        <osm-files value="map.osm"/>
    </input>

    <output>
        <output-file value="map.poly.xml"/>
    </output>

</configuration>
-->

<additional xmlns:xsi="http://www.w3.org/2001/XMLSchema-instance" xsi:noNamespaceSchemaLocation="http://sumo.dlr.de/xsd/additional_file.xsd">
    <location netOffset="-322153.43,-4307477.84" convBoundary="-586.99,-253.59,1946.17,2293.94" origBoundary="-77.057716,38.896063,-77.028750,38.919138" projParameter="+proj=utm +zone=18 +ellps=WGS84 +datum=WGS84 +units=m +no_defs"/>

    <poly id="1072039404" type="leisure" color="207,245,201" fill="1" layer="-2.00" shape="455.580686,1097.002682 456.331711,1097.607657 456.728946,1098.298299 456.920305,1099.093495 456.903547,1099.893361 456.575361,1100.733527 456.264724,1101.195761 455.717465,1101.552264 454.366991,1102.071141 453.267991,1102.584376 452.508675,1103.156614 452.178000,1103.885795 451.674143,1104.629966 450.911840,1105.069023 450.148745,1105.086144 449.579617,1104.854625 448.868713,1104.104397 448.607981,1103.310757 448.556113,1102.545743 448.845627,1101.528781 449.415121,1100.616577 450.748413,1099.331907 452.051004,1098.225590 453.115523,1097.335592 454.321819,1096.964302 454.954094,1096.916804 455.580686,1097.002682"/>
    <poly id="1108161270" type="traffic_sign" color="black" fill="0" layer="0.00" shape="797.078203,1197.223537 766.194370,1211.639752 758.751838,1215.182069"/>
    <poly id="1135359150" type="commercial" color="209,209,204" fill="1" layer="-3.00" shape="959.387083,1033.704178 957.594626,1009.815188 957.569548,1008.694247 957.245598,995.765350 956.488117,989.053281 999.263858,989.195709 999.547541,994.896811 999.829501,995.090376 1000.214265,1012.292944 1000.318524,1016.954284 1000.130895,1020.978123 1000.284057,1027.825855 1000.475130,1028.998603 959.483042,1035.278797 959.387083,1033.704178"/>
    <poly id="1193559970" type="building" color="255,230,230" fill="1" layer="-1.00" shape="766.935243,1272.606358 770.465221,1272.560606 770.501138,1269.128664 782.018412,1268.948441 782.176164,1274.830031 784.075434,1274.798599 784.832109,1309.359525 773.119027,1304.280834 772.781274,1283.390659 770.889683,1283.377506 770.816879,1280.514303 767.097129,1280.608721 766.935243,1272.606358"/>
    <poly id="1210839730" type="building" color="255,230,230" fill="1" layer="-1.00" shape="693.108305,1078.374437 680.780854,1072.998715 679.302334,1003.143213 679.823595,1002.787309 698.501295,1002.324401 698.830673,1015.863909 699.490612,1042.221141 692.224318,1042.406153 693.108305,1078.374437"/>
    <poly id="1210839731" type="building" color="255,230,230" fill="1" layer="-1.00" shape="739.629899,1041.255300 703.302878,1041.991376 699.490612,1042.221141 692.224318,1042.406153 693.108305,1078.374437 718.869413,1089.323234 739.629899,1041.255300"/>
    <poly id="1210839732" type="building" color="255,230,230" fill="1" layer="-1.00" shape="718.869413,1089.323234 688.169401,1160.743604 682.782736,1158.465840 680.780854,1072.998715 693.108305,1078.374437 718.869413,1089.323234"/>
    <poly id="1210839733" type="building" color="255,230,230" fill="1" layer="-1.00" shape="735.773924,978.337556 730.647483,978.385765 730.513693,965.441494 735.639894,965.382186 735.749502,976.472630 735.773924,978.337556"/>
    <poly id="1210842195" type="leisure" color="207,245,201" fill="1" layer="-2.00" shape="581.855673,1174.274952 587.440494,1170.685284 602.730387,1190.174274 597.200128,1194.262389 581.855673,1174.274952"/>
    <poly id="1210842196" type="leisure" color="207,245,201" fill="1" layer="-2.00" shape="587.440494,1170.685284 580.604529,1161.810982 575.188693,1165.585634 581.855673,1174.274952 587.440494,1170.685284"/>
    <poly id="1210842197" type="leisure" color="207,245,201" fill="1" layer="-2.00" shape="646.155532,1101.268194 646.044208,1094.752634 648.047581,1094.718838 647.776614,1078.757341 655.833230,1078.610095 656.224416,1101.098056 647.855400,1101.241201 646.155532,1101.268194"/>
    <poly id="1295726053" type="leisure" color="207,245,201" fill="1" layer="-2.00" shape="582.403384,1395.266008 583.417704,1395.620801 584.547411,1395.317870 585.367327,1393.967003 585.218557,1392.748896 584.521051,1391.820694 583.293931,1391.648336 581.827827,1392.425179 581.616599,1393.451485 581.696957,1394.326901 582.403384,1395.266008"/>
    <poly id="297304609" type="amenity" color="237,199,199" fill="1" layer="-1.00" shape="667.648884,1262.460935 666.365740,1262.112154 665.205701,1261.449703 664.248053,1260.527323 663.546069,1259.399342 663.153020,1258.120085 663.088736,1256.800148 663.363132,1255.494829 663.952433,1254.304597 664.814526,1253.285915 665.908044,1252.528543 667.155442,1252.056428 668.488095,1251.904418 669.802445,1252.097044 671.037045,1252.602369 672.104684,1253.400140 672.943420,1254.436225 673.491308,1255.656493 673.720098,1256.961639 673.610953,1258.285463 673.179476,1259.549886 672.449443,1260.654439 671.463215,1261.553757 670.279751,1262.168792 668.985515,1262.486500 667.648884,1262.460935"/>
    <poly id="297304609#1" type="tourism" color="207,245,201" fill="1" layer="-2.00" shape="667.648884,1262.460935 666.365740,1262.112154 665.205701,1261.449703 664.248053,1260.527323 663.546069,1259.399342 663.153020,1258.120085 663.088736,1256.800148 663.363132,1255.494829 663.952433,1254.304597 664.814526,1253.285915 665.908044,1252.528543 667.155442,1252.056428 668.488095,1251.904418 669.802445,1252.097044 671.037045,1252.602369 672.104684,1253.400140 672.943420,1254.436225 673.491308,1255.656493 673.720098,1256.961639 673.610953,1258.285463 673.179476,1259.549886 672.449443,1260.654439 671.463215,1261.553757 670.279751,1262.168792 668.985515,1262.486500 667.648884,1262.460935"/>
    <poly id="297304609#2" type="water" color="181,209,209" fill="1" layer="-4.00" shape="667.648884,1262.460935 666.365740,1262.112154 665.205701,1261.449703 664.248053,1260.527323 663.546069,1259.399342 663.153020,1258.120085 663.088736,1256.800148 663.363132,1255.494829 663.952433,1254.304597 664.814526,1253.285915 665.908044,1252.528543 667.155442,1252.056428 668.488095,1251.904418 669.802445,1252.097044 671.037045,1252.602369 672.104684,1253.400140 672.943420,1254.436225 673.491308,1255.656493 673.720098,1256.961639 673.610953,1258.285463 673.179476,1259.549886 672.449443,1260.654439 671.463215,1261.553757 670.279751,1262.168792 668.985515,1262.486500 667.648884,1262.460935"/>
    <poly id="346627397" type="traffic_sign" color="black" fill="0" layer="0.00" shape="820.186317,1186.190605 811.037013,1190.614991 797.078203,1197.223537"/>
    <poly id="413362915" type="building" color="255,230,230" fill="1" layer="-1.00" shape="860.778385,1479.471202 864.527087,1484.161999 864.075221,1484.516339 868.200031,1489.731710 868.677413,1489.354591 871.704120,1493.184338 891.735596,1493.180090 891.891540,1478.830231 883.616576,1478.893316 883.571354,1480.748696 879.995880,1480.695486 880.002466,1479.051946 876.888298,1479.066138 873.905439,1479.132912 860.778385,1479.471202"/>
    <poly id="41964684" type="tourism" color="207,245,201" fill="1" layer="-2.00" shape="540.976213,1594.413023 535.723765,1614.740168 545.038166,1614.997623 545.395969,1594.591494 540.976213,1594.413023"/>
    <poly id="41964756" type="tourism" color="207,245,201" fill="1" layer="-2.00" shape="822.738262,821.988992 820.715688,825.043456 820.650532,863.986622 822.697171,861.620066 836.701414,822.131664 822.738262,821.988992"/>
    <poly id="41964878" type="tourism" color="207,245,201" fill="1" layer="-2.00" shape="809.557133,962.560879 801.979599,981.396367 810.166631,981.257467 809.557133,962.560879"/>
    <poly id="41964962" type="tourism" color="207,245,201" fill="1" layer="-2.00" shape="352.759146,1419.917195 352.439359,1420.357432 352.598979,1420.897946 353.199035,1420.962203 386.853648,1420.284407 386.379188,1404.171993 352.759146,1419.917195"/>
    <poly id="41965076" type="tourism" color="207,245,201" fill="1" layer="-2.00" shape="552.873427,1264.967327 549.858236,1267.078084 550.598790,1293.911006 553.077680,1299.995941 584.143410,1285.596981 589.186410,1282.996612 592.070501,1280.455752 592.950008,1275.183832 592.723853,1270.514110 587.193955,1264.941730 552.873427,1264.967327"/>
    <poly id="41965217" type="tourism" color="207,245,201" fill="1" layer="-2.00" shape="555.401401,1433.403108 556.563561,1476.327420 573.286999,1437.510260 573.303687,1435.933114 572.771642,1434.645874 571.967346,1433.597923 570.811802,1433.135258 555.401401,1433.403108"/>
    <poly id="41965262" type="tourism" color="207,245,201" fill="1" layer="-2.00" shape="670.295254,1200.918707 666.426559,1200.949884 662.572505,1201.247232 658.741764,1201.810555 654.960101,1202.628173 651.244860,1203.699696 647.613383,1205.024736 644.082766,1206.591805 640.661679,1208.400710 637.375889,1210.439768 634.233570,1212.686587 631.286501,1215.128904 628.517091,1217.756008 625.925340,1220.567899 623.528093,1223.541992 621.342694,1226.677896 619.377314,1229.953222 617.640130,1233.345577 616.131139,1236.854961 614.867187,1240.458789 613.847777,1244.134863 613.081330,1247.871891 612.576020,1251.647481 612.323175,1255.461827 612.330471,1259.270342 612.597907,1263.073025 613.125235,1266.858778 613.902788,1270.583401 614.939485,1274.257800 616.217485,1277.860164 617.736043,1281.357201 619.513246,1284.781815 621.530757,1288.090003 623.761567,1291.237953 626.205923,1294.236765 628.845737,1297.053532 631.681009,1299.688254 634.685476,1302.130416 637.849970,1304.358016 641.165569,1306.360150 644.606013,1308.126303 648.162878,1309.667767 651.809405,1310.951831 655.545842,1311.989593 659.345927,1312.770538 663.183399,1313.284150 667.049834,1313.541723 670.927643,1313.532547 674.790810,1313.257204 678.630666,1312.715889 682.421446,1311.920283 686.145808,1310.870775 689.795080,1309.567560 693.343249,1308.011219 696.782141,1306.224145 700.085743,1304.206919 703.236713,1301.959930 706.227124,1299.516668 709.048307,1296.877326 711.674247,1294.042488 714.097018,1291.045643 716.316621,1287.886790 718.307291,1284.577611 720.069773,1281.151401 721.595395,1277.608354 722.867312,1273.971055 723.894445,1270.250408 724.660194,1266.480097 725.164561,1262.660123 725.408043,1258.812681 725.382464,1254.960162 725.096744,1251.113472 724.542710,1247.295001 723.729528,1243.526752 722.666368,1239.830727 721.344558,1236.207121 719.781938,1232.677743 717.979252,1229.275887 715.944924,1225.990261 713.688620,1222.865066 711.227433,1219.888813 708.562109,1217.094799 705.718663,1214.482440 702.697592,1212.073935 699.516486,1209.879992 696.192690,1207.900225 692.744044,1206.156440 689.188138,1204.659348 685.524726,1203.397851 681.797412,1202.382076 677.998023,1201.634414 674.160997,1201.142990 670.295254,1200.918707"/>
    <poly id="48076765" type="parking" color="184,184,179" fill="1" layer="-1.00" shape="364.998198,880.286076 362.596484,877.264169 357.038147,881.652883 359.439863,884.674789 364.998198,880.286076"/>
    <poly id="48076779" type="parking" color="184,184,179" fill="1" layer="-1.00" shape="947.845609,1199.167542 963.167735,1198.813625 963.171287,1195.482349 976.351830,1195.187476 976.591653,1205.519924 979.757955,1205.504611 979.613889,1192.471751 986.422686,1192.397165 986.575394,1205.041191 1001.290029,1205.067368 1001.049516,1189.660415 996.759722,1185.992118 947.845609,1199.167542"/>
    <poly id="48081187" type="parking" color="184,184,179" fill="1" layer="-1.00" shape="990.002014,1055.704759 989.218773,1054.045577 994.100761,1051.604540 991.313703,1045.692937 1004.963984,1039.236011 1003.537178,1034.404379 981.554620,1038.382733 984.513008,1046.911041 989.024628,1056.226301 990.002014,1055.704759"/>
    <poly id="48101157" type="parking" color="184,184,179" fill="1" layer="-1.00" shape="813.941801,1293.217551 790.250764,1293.315027 790.291740,1287.784315 789.305279,1285.574502 789.299366,1282.598761 784.701826,1282.623998 784.832109,1309.359525 794.648508,1309.161890 803.328719,1308.978607 814.194344,1308.757500 813.941801,1293.217551"/>
    <poly id="48101158" type="parking" color="184,184,179" fill="1" layer="-1.00" shape="981.133396,1297.237206 975.731922,1297.391357 975.849041,1301.075262 976.375424,1319.562734 981.180551,1319.510755 981.133396,1297.237206"/>
    <poly id="48101382" type="parking" color="184,184,179" fill="1" layer="-1.00" shape="886.589732,1041.951118 886.338984,1033.073536 879.047418,1033.292254 879.325182,1042.213648 886.589732,1041.951118"/>
    <poly id="48101388" type="parking" color="184,184,179" fill="1" layer="-1.00" shape="901.010299,924.148163 890.823006,924.076340 888.399742,921.632175 882.496138,919.132655 882.406871,917.857694 889.428065,901.288860 877.638417,896.300532 872.496274,908.441245 871.929811,911.429793 876.948638,913.549364 875.474150,917.057915 877.094564,917.743407 877.982645,919.433545 874.073280,929.670091 875.443951,930.438900 874.815997,932.618233 877.356557,932.550267 877.390317,933.671014 901.206779,933.315662 901.010299,924.148163"/>
    <poly id="48101614" type="parking" color="184,184,179" fill="1" layer="-1.00" shape="870.106766,1286.574649 867.893096,1286.513163 863.114457,1286.586824 862.996049,1278.972131 861.382686,1278.986040 861.374732,1282.506186 857.193169,1282.510964 857.185618,1276.748158 855.676062,1276.748640 855.679514,1288.141266 845.746389,1288.163773 845.742556,1282.567443 831.109072,1282.672994 831.455592,1296.212117 870.179399,1295.245246 870.106766,1286.574649"/>
    <poly id="48101621" type="parking" color="184,184,179" fill="1" layer="-1.00" shape="1003.104820,1176.822651 1028.352577,1176.879784 1028.318836,1175.759036 1028.103671,1166.913973 1027.980776,1160.642971 1006.672478,1170.702284 996.626524,1149.396359 991.457944,1151.821602 1003.104820,1176.822651"/>
    <poly id="48102201" type="parking" color="184,184,179" fill="1" layer="-1.00" shape="509.108626,1149.889602 500.323175,1150.031142 501.631084,1219.168782 500.774361,1221.586469 504.834899,1222.372605 505.875094,1223.492987 508.417307,1223.502588 510.530016,1222.156028 509.108626,1149.889602"/>
    <poly id="48109262" type="parking" color="184,184,179" fill="1" layer="-1.00" shape="971.746173,1187.095767 961.754900,1165.910803 957.531011,1167.904086 957.886082,1168.651213 956.838844,1169.152114 963.833714,1183.986004 949.178850,1190.898551 939.570841,1170.560043 934.066836,1173.114974 939.231378,1184.081196 926.439108,1190.097102 928.306651,1194.074956 931.062608,1192.780743 929.842028,1190.187514 932.503098,1188.917633 934.989599,1194.191910 936.663886,1193.410478 937.829951,1195.893889 934.919647,1197.269281 936.880397,1202.311035 937.383084,1211.593828 942.135890,1218.893842 941.416747,1196.835199 971.746173,1187.095767"/>
    <poly id="48110534" type="parking" color="184,184,179" fill="1" layer="-1.00" shape="460.367576,1219.872401 431.792815,1220.402529 431.125817,1181.786570 424.838272,1181.894352 424.954424,1187.843506 423.982974,1187.854202 424.035774,1190.207072 423.324716,1190.223029 423.340747,1191.710610 425.105917,1193.047898 425.410336,1209.319578 424.413123,1209.341956 424.616996,1223.839247 429.344153,1223.788687 429.383166,1229.006707 428.724140,1229.021495 428.768135,1234.461484 430.199162,1234.440475 430.155169,1229.000486 434.726487,1228.964530 434.765746,1234.193648 436.292408,1234.181598 436.244932,1228.586232 440.720616,1228.541321 440.767885,1234.514229 442.476646,1234.498094 442.429877,1228.547383 446.957838,1228.512406 447.009994,1233.930003 448.475956,1233.919318 448.389284,1223.483473 460.376892,1223.381065 460.367576,1219.872401"/>
    <poly id="48207305" type="tourism" color="207,245,201" fill="1" layer="-2.00" shape="372.312667,850.929403 370.388403,827.432050 369.707779,825.326457 345.544949,814.909152 343.217694,817.137785 370.778597,851.774430 372.312667,850.929403"/>
    <poly id="48207306" type="tourism" color="207,245,201" fill="1" layer="-2.00" shape="549.548818,1135.668919 560.663927,1135.341947 562.892003,1135.269778 563.501419,1134.589872 563.541713,1133.678439 547.766029,1111.879668 547.199891,1111.781323 546.592964,1112.572215 547.031688,1134.070865 547.789462,1135.364147 549.548818,1135.668919"/>
    <poly id="48207307" type="leisure" color="207,245,201" fill="1" layer="-2.00" shape="834.495670,1489.331499 834.098540,1489.418120 834.235387,1494.367442 834.412838,1495.318413 835.155871,1495.956912 838.055741,1496.058541 838.804410,1495.786386 838.878696,1495.229522 834.495670,1489.331499"/>
    <poly id="48207308" type="leisure" color="207,245,201" fill="1" layer="-2.00" shape="816.359923,1426.000605 811.461214,1426.132511 811.025943,1426.453171 810.988580,1427.109144 811.316896,1427.823552 817.316420,1435.784023 817.897415,1436.159653 818.416441,1436.092511 818.815287,1435.694939 818.800135,1428.044619 818.308780,1427.022949 817.529563,1426.318638 816.359923,1426.000605"/>
    <poly id="52292072" type="parking" color="184,184,179" fill="1" layer="-1.00" shape="902.839896,1074.910514 913.428094,1070.032094 914.177906,1071.747537 931.785917,1063.036636 933.735252,1067.179223 949.260686,1059.614256 951.945681,1065.228322 959.380757,1061.730783 964.657023,1071.872826 975.759327,1066.316752 963.729777,1043.223077 970.252165,1040.423311 949.971767,1044.863355 952.975914,1051.169832 947.069967,1053.989133 943.202534,1045.936439 903.814890,1053.735590 892.911478,1053.446616 893.425761,1074.099635 888.604879,1074.229740 891.418519,1080.162923 902.839896,1074.910514"/>
    <poly id="52292084" type="parking" color="184,184,179" fill="1" layer="-1.00" shape="886.555075,1072.576706 886.477175,1053.590622 883.336374,1050.096536 881.503330,1048.050012 874.418902,1048.219683 874.553520,1053.846395 873.114040,1053.878615 872.979421,1048.251903 869.399054,1048.376459 869.490473,1052.460683 849.690594,1053.559035 849.710221,1054.435811 850.889555,1054.409411 851.017730,1059.747563 849.890427,1059.772799 849.912042,1060.738363 874.113625,1060.163309 874.414163,1072.815136 877.319380,1072.761212 886.555075,1072.576706"/>
    <poly id="52292088" type="parking" color="184,184,179" fill="1" layer="-1.00" shape="1036.783619,1291.628574 1036.600987,1284.626044 1027.186179,1284.936539 1027.272361,1289.953613 1017.030310,1290.127167 1016.947366,1285.643011 969.856485,1287.218301 969.887464,1282.398476 963.772698,1282.468657 963.584748,1274.455780 960.818347,1274.506570 960.932303,1279.212113 959.603664,1280.318926 959.652830,1282.516417 948.990362,1283.287975 949.049337,1288.250140 937.889322,1287.722576 937.931789,1289.620408 934.567321,1289.695695 934.524357,1287.775665 933.431523,1287.789015 933.465796,1289.320600 928.783041,1289.414284 928.747774,1287.838306 928.305538,1287.848202 927.256061,1287.860583 927.272765,1289.770096 926.596403,1289.785232 926.633657,1291.449997 922.592828,1291.540424 922.555573,1289.875659 916.806496,1290.004317 916.845988,1291.768968 912.943900,1291.856295 912.904408,1290.091644 912.253812,1290.095100 912.211090,1288.186169 874.484183,1288.730773 870.106766,1286.574649 870.179399,1295.245246 1036.783619,1291.628574"/>
    <poly id="534304366" type="building" color="255,230,230" fill="1" layer="-1.00" shape="371.709485,1441.688731 372.800658,1440.442791 374.667450,1440.511924 375.380825,1441.373129 381.369858,1441.116540 381.915364,1468.509066 379.532547,1468.640285 379.793983,1486.856147 366.572281,1487.230695 366.143823,1465.054438 372.048369,1464.899674 371.709485,1441.688731"/>
    <poly id="55326911" type="building" color="255,230,230" fill="1" layer="-1.00" shape="792.901370,1088.964223 793.321747,1087.977657 789.432566,1086.321422 789.647090,1085.828042 787.308427,1084.836638 790.087082,1078.356300 792.425995,1079.358803 792.499813,1079.168382 792.986581,1078.047082 804.078551,1082.495695 805.015352,1082.874462 803.058859,1087.326560 805.684452,1088.733495 803.845634,1093.016398 803.614511,1093.543462 796.177329,1090.356591 793.785893,1089.333055 792.901370,1088.964223"/>
    <poly id="55326912" type="building" color="255,230,230" fill="1" layer="-1.00" shape="766.805390,1077.778403 783.869803,1085.091308 792.901370,1088.964223 793.785893,1089.333055 790.757339,1097.051532 782.763409,1093.410774 763.593703,1084.679296 759.845246,1083.108756 760.817281,1080.799560 764.504540,1082.349264 765.013590,1081.060902 764.496501,1080.828195 765.833900,1077.400417 766.805390,1077.778403"/>
    <poly id="55326913" type="building" color="255,230,230" fill="1" layer="-1.00" shape="771.529602,1066.746259 773.947311,1067.780305 788.628719,1074.058398 783.869803,1085.091308 766.805390,1077.778403 768.537180,1073.753280 764.542684,1072.043895 765.647750,1069.476328 769.624903,1071.186102 771.529602,1066.746259"/>
    <poly id="55326914" type="building" color="255,230,230" fill="1" layer="-1.00" shape="992.869238,1064.812516 996.866188,1072.840125 998.228732,1075.574541 995.618650,1076.798840 987.677912,1080.574152 987.450697,1080.112867 984.335808,1073.120410 982.270775,1068.458513 984.811982,1067.257958 981.525163,1060.724610 988.565087,1057.402499 991.661624,1063.962313 992.322630,1063.647720 992.869238,1064.812516"/>
    <poly id="55326915" type="building" color="255,230,230" fill="1" layer="-1.00" shape="773.673599,1061.756962 803.835963,1074.761639 803.875948,1076.159848 804.740422,1076.795626 804.746386,1077.061989 804.784879,1078.393607 803.962378,1079.244824 804.002611,1080.654131 796.048577,1077.245650 788.628719,1074.058398 773.947311,1067.780305 771.529602,1066.746259 773.673599,1061.756962"/>
    <poly id="55326917" type="building" color="255,230,230" fill="1" layer="-1.00" shape="830.647380,1054.740432 849.706991,1054.291531 849.710221,1054.435811 850.889555,1054.409411 851.017730,1059.747563 849.890427,1059.772799 849.912042,1060.738363 861.696197,1060.452362 874.113625,1060.163309 874.414163,1072.815136 867.433816,1072.982484 867.104297,1072.989860 867.133611,1074.299475 861.792187,1074.430143 861.762872,1073.120528 861.086491,1073.135669 861.155284,1075.821296 861.240001,1079.605862 861.049227,1079.610132 861.076307,1080.819862 855.847368,1080.936912 855.820536,1079.738281 850.279670,1079.873422 850.327870,1082.026518 851.559228,1081.998953 851.658584,1086.049687 850.427226,1086.077253 850.510955,1089.817425 851.803013,1089.788501 851.917548,1094.904879 850.634411,1094.944708 850.728302,1098.751276 846.635344,1098.842903 831.876914,1099.195519 831.873435,1099.040141 831.119013,1099.057031 830.564284,1099.080555 830.389653,1092.055634 831.551389,1092.018520 831.512875,1090.298263 830.349150,1090.246589 830.122836,1080.913194 831.285071,1080.898277 831.269665,1080.210174 830.116350,1080.235995 830.032861,1076.506921 830.027146,1076.251657 829.976233,1074.365117 825.953380,1074.488497 825.554489,1074.497428 825.360275,1067.373009 825.793853,1067.363302 829.808286,1067.251215 829.720101,1063.699910 830.883084,1063.718289 830.842582,1061.909244 829.680841,1061.946357 829.515628,1054.954538 830.651852,1054.940204 830.647380,1054.740432"/>
    <poly id="55326918" type="building" color="255,230,230" fill="1" layer="-1.00" shape="943.135910,1085.612481 924.762859,1094.251646 915.535036,1074.626413 914.177906,1071.747537 925.485336,1066.442192 931.785917,1063.036636 933.735252,1067.179223 941.917542,1063.342932 942.964932,1065.562503 945.056456,1064.427516 946.969358,1068.493192 947.452044,1069.515064 952.783441,1066.997320 955.953599,1073.744243 958.212152,1078.523948 943.135910,1085.612481"/>
    <poly id="55326919" type="building" color="255,230,230" fill="1" layer="-1.00" shape="971.971591,1087.421331 971.087362,1087.840856 971.029429,1088.741575 968.436449,1089.954397 967.575964,1089.496176 949.048301,1098.205367 943.135910,1085.612481 958.212152,1078.523948 955.953599,1073.744243 952.783441,1066.997320 952.282172,1065.920345 959.708575,1062.423000 960.865481,1064.884410 961.277495,1064.686425 964.657023,1071.872826 965.440267,1073.532006 966.505985,1075.795585 971.971591,1087.421331"/>
    <poly id="55326920" type="building" color="255,230,230" fill="1" layer="-1.00" shape="981.020267,1083.143747 971.971591,1087.421331 966.505985,1075.795585 968.935699,1074.653039 968.353906,1073.466824 966.974256,1070.743899 975.759327,1066.316752 976.062619,1067.076142 975.594409,1068.252535 977.589348,1073.271325 977.901559,1074.041620 976.904101,1074.441469 981.020267,1083.143747"/>
    <poly id="55326921" type="building" color="255,230,230" fill="1" layer="-1.00" shape="982.270775,1068.458513 984.335808,1073.120410 987.450697,1080.112867 981.020267,1083.143747 976.904101,1074.441469 977.901559,1074.041620 977.589348,1073.271325 975.594409,1068.252535 976.062619,1067.076142 975.759327,1066.316752 971.569804,1057.438453 971.044563,1057.616762 969.039014,1053.675297 973.953697,1051.144684 975.795707,1054.756689 982.270775,1068.458513"/>
    <poly id="55326935" type="building" color="255,230,230" fill="1" layer="-1.00" shape="777.961105,1051.756172 803.508108,1062.832181 803.546352,1064.152700 804.393485,1064.788867 804.448602,1066.475441 803.632534,1067.226578 803.667327,1068.780359 775.998680,1056.330553 777.961105,1051.756172"/>
    <poly id="55326936" type="building" color="255,230,230" fill="1" layer="-1.00" shape="780.063492,1046.845536 779.581584,1046.634249 797.283170,1005.297398 796.810429,1005.108112 799.105803,999.515818 802.129769,1000.114346 802.315446,1005.306860 802.483087,1011.243745 803.740223,1011.204492 804.141803,1025.264266 802.910684,1025.302937 803.004072,1028.698669 802.362374,1028.713038 802.426216,1031.176696 802.651678,1031.171648 802.782814,1035.865703 804.048866,1035.837354 804.489438,1051.250944 803.171607,1051.291556 803.329557,1056.795603 780.063492,1046.845536"/>
    <poly id="55326938" type="building" color="255,230,230" fill="1" layer="-1.00" shape="775.998680,1056.330553 803.667327,1068.780359 803.702092,1069.945501 804.566070,1070.559083 804.617238,1072.456721 803.790511,1073.119265 803.835963,1074.761639 773.673599,1061.756962 775.998680,1056.330553"/>
    <poly id="55326939" type="building" color="255,230,230" fill="1" layer="-1.00" shape="780.063492,1046.845536 803.329557,1056.795603 803.364074,1057.949646 804.224103,1058.774292 804.271543,1060.505454 803.457712,1061.356477 803.508108,1062.832181 777.961105,1051.756172 780.063492,1046.845536"/>
    <poly id="55326989" type="building" color="255,230,230" fill="1" layer="-1.00" shape="929.397083,934.561424 929.080504,921.188203 935.549601,921.043459 935.585588,922.264093 935.735519,932.842837 935.776740,934.685177 929.397083,934.561424"/>
    <poly id="55326990" type="building" color="255,230,230" fill="1" layer="-1.00" shape="832.608248,924.146852 862.335252,933.963570 868.994869,933.803403 869.049837,937.422074 835.202963,938.124213 835.175135,936.881189 831.767158,936.957484 831.480926,924.172090 832.608248,924.146852"/>
    <poly id="55326994" type="building" color="255,230,230" fill="1" layer="-1.00" shape="941.597588,932.711680 941.408604,923.877135 947.918841,924.020185 948.256246,938.325673 941.830522,938.469437 941.732439,934.085557 941.628378,934.087885 941.597588,932.711680"/>
    <poly id="55326995" type="building" color="255,230,230" fill="1" layer="-1.00" shape="952.217264,918.372026 954.596513,912.644661 956.234015,913.318683 956.563503,912.534032 956.719824,912.153000 962.856252,897.525022 960.824546,896.682154 960.693229,896.629572 957.741059,895.363137 955.954396,894.614724 956.712470,892.821128 955.862869,892.462599 961.481545,879.123162 962.340812,879.525892 967.471618,881.609703 967.669561,881.150012 969.746085,875.851376 969.956441,875.946607 981.670490,881.047800 980.797724,883.532406 982.753619,884.476911 983.467613,883.039631 988.846434,885.351092 991.894984,886.659798 1000.239600,890.459489 999.033597,893.173625 997.191380,896.923558 999.524870,898.070597 1003.223392,889.648788 1007.310593,891.622717 1006.601808,893.293062 1016.835886,897.783374 1022.785049,900.381909 1009.532433,931.613979 953.534142,918.675684 952.217264,918.372026"/>
    <poly id="55326997" type="building" color="255,230,230" fill="1" layer="-1.00" shape="935.735519,932.842837 935.585588,922.264093 941.375330,922.389945 941.408604,923.877135 941.597588,932.711680 935.735519,932.842837"/>
    <poly id="55326999" type="building" color="255,230,230" fill="1" layer="-1.00" shape="929.397083,934.561424 929.495670,938.967501 929.529939,940.499085 929.544094,941.131695 924.323985,941.259602 923.370099,941.280946 923.232252,934.732677 912.947867,934.973910 913.371018,953.108359 913.418681,954.850618 913.471580,957.214584 907.141259,957.356242 907.050607,953.305315 906.178945,915.904378 929.080504,921.188203 929.397083,934.561424"/>
    <poly id="55327000" type="building" color="255,230,230" fill="1" layer="-1.00" shape="840.354185,905.851728 874.982413,918.345880 877.982645,919.433545 874.540491,928.449299 871.513998,927.351119 836.588478,914.752600 837.659402,912.208019 838.648083,909.865151 839.876069,906.972831 840.354185,905.851728"/>
    <poly id="55327001" type="building" color="255,230,230" fill="1" layer="-1.00" shape="836.588478,914.752600 871.513998,927.351119 874.540491,928.449299 874.097805,929.602918 872.524748,933.746604 868.994869,933.803403 862.335252,933.963570 832.608248,924.146852 836.588478,914.752600"/>