<?xml version="1.0" encoding="iso-8859-1"?>
 
<configuration xmlns:xsi="http://www.w3.org/2001/XMLSchema-instance" xsi:noNamespaceSchemaLocation="http://sumo.sf.net/xsd/sumoConfiguration.xsd">
 
    <input>
        <net-file value="cn.net.xml"/>
        <route-files value="cn.rou.xml"/>
        <additional-files value="cn.poly.xml"/>
    </input>
 
    <time>
        <begin value="0"/>
        <end value="600"/>
        <step-length value="0.1"/>
    </time>
 
    <report>
        <xml-validation value="never"/>
		<xml-validation.net value="never"/>
        <no-step-log value="true"/>
    </report>
 
    <gui_only>
        <start value="true"/>
    </gui_only>
 
</configuration>
