<?xml version="1.0" encoding="UTF-8"?>

<!-- generated on 03/28/23 15:54:24 by Eclipse SUMO polyconvert Version 1.8.0
<configuration xmlns:xsi="http://www.w3.org/2001/XMLSchema-instance" xsi:noNamespaceSchemaLocation="http://sumo.dlr.de/xsd/polyconvertConfiguration.xsd">

    <input>
        <net-file value="cn.net.xml"/>
        <osm-files value="cn.osm"/>
    </input>

    <output>
        <output-file value="cn.poly.xml"/>
    </output>

    <processing>
        <poi-layer-offset value="5"/>
    </processing>

</configuration>
-->

<additional xmlns:xsi="http://www.w3.org/2001/XMLSchema-instance" xsi:noNamespaceSchemaLocation="http://sumo.dlr.de/xsd/additional_file.xsd">
    <location netOffset="-625001.87,-2907995.16" convBoundary="-0.00,0.00,20978.50,22545.16" origBoundary="112.253215,26.284838,112.464272,26.489344" projParameter="+proj=utm +zone=49 +ellps=WGS84 +datum=WGS84 +units=m +no_defs"/>

    <poly id="810105024" type="landuse" color="194,194,130" fill="1" layer="-3.00" shape="15577.577284,12998.013759 15374.091383,12977.543018 15385.448730,12865.764759 15408.409487,12868.076206 15414.010554,12812.911870 15594.538248,12831.071305 15577.577284,12998.013759"/>
    <poly id="810105025" type="landuse" color="194,194,130" fill="1" layer="-3.00" shape="15547.367976,13295.369729 15577.577284,12998.013759 15374.091383,12977.543018 15319.609823,12972.062375 15291.451833,13249.300587 15463.592517,13266.624692 15461.547029,13286.731694 15547.367976,13295.369729"/>
    <poly id="810105026" type="landuse" color="194,194,130" fill="1" layer="-3.00" shape="14743.029584,16042.819556 14997.317628,16047.485436 15000.774457,15860.431655 14746.472729,15855.765763 14743.029584,16042.819556"/>
    <poly id="810105027" type="water" color="181,209,209" fill="1" layer="-4.00" shape="10188.985769,14214.358840 10148.582598,14202.356959 10138.659673,14198.330885 10132.009667,14194.206320 10128.508115,14190.436152 10126.685417,14185.431822 10126.373568,14182.836262 10126.624915,14177.909145 10130.400904,14163.181748 10133.118744,14158.956349 10141.473156,14152.785122 10145.258424,14149.501520 10149.247611,14139.163304 10150.500468,14133.858993 10152.826462,14128.953709 10165.306834,14112.722675 10173.216598,14098.570544 10205.052885,14035.560986 10209.847091,14024.566574 10212.830092,14020.742793 10217.677069,14018.002137 10222.373213,14016.323393 10227.725218,14016.778555 10258.665702,14025.612357 10268.258763,14029.712589 10273.049750,14032.288861 10277.695494,14035.395354 10281.671559,14038.627733 10283.897977,14043.182135 10284.114077,14048.236035 10261.419194,14069.156209 10258.829559,14073.515871 10254.579535,14083.984248 10252.059262,14094.072030 10239.704610,14137.190906 10239.540725,14152.753939 10241.609616,14184.581009 10241.557824,14189.499149 10240.566944,14194.551415 10238.384881,14199.048310 10235.390536,14203.004902 10217.932676,14209.744903 10188.985769,14214.358840"/>
    <poly id="810105028" type="landuse" color="194,194,130" fill="1" layer="-3.00" shape="10978.998973,14526.074725 10726.248886,14522.514461 10732.221899,14098.949330 10984.980330,14102.509352 10980.855369,14394.098123 11363.595126,14399.497159 11360.975864,14584.153629 11194.258202,14581.808190 11195.553911,14489.740186 10979.555604,14486.697763 10978.998973,14526.074725"/>
    <poly id="810105029" type="building" color="255,230,230" fill="1" layer="-1.00" shape="11515.078568,14580.551065 11530.427833,14580.769650 11531.694859,14491.625887 11516.345488,14491.407305 11515.078568,14580.551065"/>
    <poly id="810105030" type="building" color="255,230,230" fill="1" layer="-1.00" shape="11513.654045,14681.701913 11528.993214,14681.920396 11530.211190,14596.454058 11514.861945,14596.235472 11513.654045,14681.701913"/>
    <poly id="810105031" type="building" color="255,230,230" fill="1" layer="-1.00" shape="11381.599417,14635.321204 11380.957931,14680.690616 11398.441352,14680.942796 11399.082899,14635.573383 11381.599417,14635.321204"/>
    <poly id="810105032" type="building" color="255,230,230" fill="1" layer="-1.00" shape="11400.193827,14557.284607 11382.710120,14557.043509 11381.670190,14630.536182 11399.153797,14630.777284 11400.193827,14557.284607"/>
    <poly id="810105033" type="building" color="255,230,230" fill="1" layer="-1.00" shape="12353.563575,13580.522016 12374.256836,13594.203322 12381.018954,13584.083685 12360.315708,13570.402262 12353.563575,13580.522016"/>
    <poly id="810105034" type="building" color="255,230,230" fill="1" layer="-1.00" shape="12313.365086,13598.792270 12351.409342,13600.063100 12351.805270,13588.224727 12313.760980,13586.953898 12313.365086,13598.792270"/>
    <poly id="810105035" type="building" color="255,230,230" fill="1" layer="-1.00" shape="12308.503424,13577.647395 12346.238526,13578.914902 12346.703510,13565.282598 12308.968249,13564.026169 12308.503424,13577.647395"/>
    <poly id="810105036" type="building" color="255,230,230" fill="1" layer="-1.00" shape="12359.844274,13561.313089 12376.951706,13572.618552 12383.125943,13563.367808 12380.322521,13561.521000 12382.431384,13558.353029 12368.137220,13548.905547 12359.844274,13561.313089"/>
    <poly id="810105037" type="building" color="255,230,230" fill="1" layer="-1.00" shape="12356.696731,13525.408191 12349.515836,13537.373424 12364.474637,13546.240846 12371.645567,13534.275514 12356.696731,13525.408191"/>
    <poly id="810105038" type="building" color="255,230,230" fill="1" layer="-1.00" shape="12332.711878,13547.130920 12293.879699,13545.829576 12293.456180,13558.387736 12332.288321,13559.689080 12332.711878,13547.130920"/>
    <poly id="810105039" type="building" color="255,230,230" fill="1" layer="-1.00" shape="12357.991696,13547.977272 12335.544114,13547.216590 12335.120435,13559.785827 12357.568114,13560.535432 12357.991696,13547.977272"/>
    <poly id="810105040" type="building" color="255,230,230" fill="1" layer="-1.00" shape="12290.686174,13536.611612 12341.315670,13538.304946 12341.784555,13524.307103 12291.155004,13522.613770 12290.686174,13536.611612"/>
    <poly id="810105041" type="building" color="255,230,230" fill="1" layer="-1.00" shape="12291.786485,13514.865775 12332.473710,13516.220173 12332.911503,13503.263350 12292.224356,13501.897876 12291.786485,13514.865775"/>
    <poly id="810105042" type="building" color="255,230,230" fill="1" layer="-1.00" shape="12320.198395,13479.353614 12282.881824,13478.101751 12282.417859,13491.645437 12319.744364,13492.897408 12320.198395,13479.353614"/>
    <poly id="810105043" type="building" color="255,230,230" fill="1" layer="-1.00" shape="12343.807719,13493.697488 12344.261657,13480.164772 12323.010577,13479.450145 12322.546568,13492.993831 12343.807719,13493.697488"/>
    <poly id="810105045" type="building" color="255,230,230" fill="1" layer="-1.00" shape="11983.624690,13134.662797 11983.774666,13110.303465 12019.267744,13110.515760 12019.319748,13101.897485 11975.936007,13101.634300 11975.693366,13143.108439 12001.430284,13143.260994 12001.480861,13134.775642 11983.624690,13134.662797"/>
    <poly id="810105046" type="building" color="255,230,230" fill="1" layer="-1.00" shape="12057.332081,13156.796537 12032.249234,13156.119093 12031.990156,13165.444164 12048.336395,13165.884396 12047.809236,13185.376387 12031.463022,13184.936154 12031.263929,13192.378574 12056.346706,13193.056019 12057.332081,13156.796537"/>
    <poly id="810105047" type="building" color="255,230,230" fill="1" layer="-1.00" shape="12028.210041,13240.192701 12054.599328,13240.895162 12055.516326,13207.304792 12046.331006,13207.051714 12045.709259,13229.799684 12028.505372,13229.339225 12028.210041,13240.192701"/>
    <poly id="810105048" type="amenity" color="237,199,199" fill="1" layer="-1.00" shape="12060.015802,13149.303076 12057.192272,13253.130990 11964.082208,13250.620309 11968.322686,13094.285847 12025.809146,13095.829377 12024.871630,13130.416559 12060.015802,13149.303076"/>
    <poly id="810105050" type="building" color="255,230,230" fill="1" layer="-1.00" shape="12375.133711,12847.907233 12380.997752,12827.574961 12372.742526,12825.215672 12366.878497,12845.547947 12375.133711,12847.907233"/>
    <poly id="810105051" type="building" color="255,230,230" fill="1" layer="-1.00" shape="12385.278778,12850.796327 12391.132978,12830.452876 12392.262213,12826.543267 12382.127103,12823.654274 12380.997752,12827.574961 12375.133711,12847.907233 12385.278778,12850.796327"/>
    <poly id="810105052" type="building" color="255,230,230" fill="1" layer="-1.00" shape="12385.278778,12850.796327 12398.238556,12854.491001 12404.102632,12834.158738 12391.132978,12830.452876 12385.278778,12850.796327"/>
    <poly id="810105053" type="amenity" color="237,199,199" fill="1" layer="-1.00" shape="12065.039161,12511.884646 12064.901933,12510.719973 12060.309427,12492.314448 12053.474582,12474.616171 12031.511042,12485.360434 12036.885840,12499.642128 12040.741325,12515.126223 12042.657651,12530.955221 12042.587426,12546.895974 12040.543115,12562.715971 12036.547392,12578.160658 12029.752477,12591.337704 12052.929848,12603.338820 12059.912167,12585.688198 12064.355411,12568.509015 12102.729959,12569.029148 12107.885469,12568.319757 12113.928634,12566.700350 12122.956861,12563.019020 12127.857647,12560.002657 12129.670494,12558.404586 12133.698711,12553.949828 12136.433707,12550.079493 12137.939824,12546.373295 12138.307361,12543.718453 12137.692127,12534.993356 12136.927301,12531.872225 12135.932611,12529.723521 12132.317454,12525.386608 12128.867434,12522.402997 12123.872032,12519.325350 12118.896627,12517.178485 12109.480285,12514.219847 12099.035443,12512.280515 12087.348365,12511.757026 12065.039161,12511.884646"/>
    <poly id="810105053#1" type="building" color="255,230,230" fill="1" layer="-1.00" shape="12065.039161,12511.884646 12064.901933,12510.719973 12060.309427,12492.314448 12053.474582,12474.616171 12031.511042,12485.360434 12036.885840,12499.642128 12040.741325,12515.126223 12042.657651,12530.955221 12042.587426,12546.895974 12040.543115,12562.715971 12036.547392,12578.160658 12029.752477,12591.337704 12052.929848,12603.338820 12059.912167,12585.688198 12064.355411,12568.509015 12102.729959,12569.029148 12107.885469,12568.319757 12113.928634,12566.700350 12122.956861,12563.019020 12127.857647,12560.002657 12129.670494,12558.404586 12133.698711,12553.949828 12136.433707,12550.079493 12137.939824,12546.373295 12138.307361,12543.718453 12137.692127,12534.993356 12136.927301,12531.872225 12135.932611,12529.723521 12132.317454,12525.386608 12128.867434,12522.402997 12123.872032,12519.325350 12118.896627,12517.178485 12109.480285,12514.219847 12099.035443,12512.280515 12087.348365,12511.757026 12065.039161,12511.884646"/>
    <poly id="810105054" type="tourism" color="207,245,201" fill="1" layer="-2.00" shape="12058.269119,12672.390683 12050.953927,12667.936782 12043.827385,12662.631876 12035.715407,12655.244846 12031.830447,12650.949397 12028.169669,12646.213211 12020.609121,12633.891204 12009.263657,12610.694388 12002.695196,12595.148143 11997.579827,12581.799794 11994.293966,12571.838718 11991.693400,12561.231335 11989.601169,12549.732039 11987.614486,12532.074403 11987.199844,12521.368464 11988.006646,12509.324007 11991.437807,12486.938352 11997.740784,12455.333034 12001.975533,12445.540756 12008.353456,12433.112565 12023.031978,12407.589843 12028.590376,12400.913575 12038.343342,12391.025051 12065.638097,12365.924938 12072.311615,12360.401633 12102.799227,12349.316309 12110.444792,12348.068491 12153.232441,12348.336709 12168.102735,12348.816677 12203.314930,12354.044786 12229.207664,12358.442320 12237.416887,12360.468661 12266.770541,12376.169746 12277.850316,12383.123333 12283.774411,12388.925115 12296.321460,12403.283545 12308.027570,12417.909959 12312.469682,12424.216598 12325.862594,12459.311396 12348.724030,12523.277475 12365.720223,12572.192117 12367.428579,12577.572225 12367.755254,12580.611143 12366.692463,12586.703868 12364.309387,12594.045395 12362.978207,12596.313274 12357.125857,12601.546097 12348.846276,12607.052090 12326.483253,12619.697033 12178.727732,12694.658115 12166.323430,12696.852122 12157.561365,12697.102021 12142.035891,12695.418607 12124.717160,12692.563944 12102.270260,12687.859925 12086.979779,12683.786198 12069.814993,12677.720580 12058.269119,12672.390683"/>
    <poly id="810105069" type="commercial" color="209,209,204" fill="1" layer="-3.00" shape="14001.747426,16089.850522 14050.853740,16100.497024 14049.719046,16207.977732 13933.326914,16206.750297 13934.570242,16089.145224 14001.747426,16089.850522"/>
    <poly id="810105069#1" type="tourism" color="207,245,201" fill="1" layer="-2.00" shape="14001.747426,16089.850522 14050.853740,16100.497024 14049.719046,16207.977732 13933.326914,16206.750297 13934.570242,16089.145224 14001.747426,16089.850522"/>
    <poly id="810105070" type="residential" color="235,235,227" fill="1" layer="-3.00" shape="14052.295150,16022.698485 14055.584240,15843.409299 13940.843940,15841.313609 13937.546482,16020.602646 14052.295150,16022.698485"/>
    <poly id="810105075" type="building" color="255,230,230" fill="1" layer="-1.00" shape="13586.041119,13428.294471 13599.390447,13425.391964 13597.070464,13414.809348 13592.590720,13415.780219 13589.500524,13401.688563 13580.620947,13403.620096 13586.041119,13428.294471"/>
    <poly id="810105076" type="building" color="255,230,230" fill="1" layer="-1.00" shape="13590.011299,13444.965777 13615.678301,13434.917758 13612.221068,13426.184016 13586.554052,13436.232042 13590.011299,13444.965777"/>
    <poly id="810105077" type="building" color="255,230,230" fill="1" layer="-1.00" shape="13595.054958,13454.602890 13599.415356,13465.617417 13629.851038,13453.704338 13625.490662,13442.689800 13595.054958,13454.602890"/>
    <poly id="810105096" type="building" color="255,230,230" fill="1" layer="-1.00" shape="14463.501334,12491.160656 14448.672960,12507.052192 14467.480339,12524.416561 14482.318573,12508.536232 14463.501334,12491.160656"/>
    <poly id="810105097" type="building" color="255,230,230" fill="1" layer="-1.00" shape="14409.358507,12489.199501 14400.741812,12479.700564 14400.081254,12478.973310 14385.220848,12492.305483 14394.498103,12502.531664 14409.358507,12489.199501"/>
    <poly id="810105098" type="building" color="255,230,230" fill="1" layer="-1.00" shape="14444.123463,12535.562665 14451.157832,12528.138990 14438.516214,12516.280986 14431.481966,12523.693590 14444.123463,12535.562665"/>
    <poly id="810105099" type="building" color="255,230,230" fill="1" layer="-1.00" shape="14420.504612,12540.513202 14406.934766,12527.769974 14399.900423,12535.193671 14413.470268,12547.936892 14420.504612,12540.513202"/>
    <poly id="810105100" type="building" color="255,230,230" fill="1" layer="-1.00" shape="14429.104310,12562.607991 14436.138536,12555.195386 14423.507029,12543.326426 14416.462709,12550.750007 14429.104310,12562.607991"/>
    <poly id="810105101" type="building" color="255,230,230" fill="1" layer="-1.00" shape="14370.862553,12515.458481 14361.968575,12526.008265 14398.966988,12556.863761 14407.860978,12546.314002 14370.862553,12515.458481"/>
    <poly id="810105102" type="building" color="255,230,230" fill="1" layer="-1.00" shape="14324.288881,12577.302077 14334.739855,12586.012138 14372.286434,12541.474668 14361.835567,12532.753500 14324.288881,12577.302077"/>
    <poly id="810105103" type="building" color="255,230,230" fill="1" layer="-1.00" shape="14327.442626,12594.684868 14316.991776,12585.963735 14304.045101,12601.321910 14311.094742,12607.203353 14312.964474,12604.985808 14316.365799,12607.814410 14327.442626,12594.684868"/>
    <poly id="810105104" type="building" color="255,230,230" fill="1" layer="-1.00" shape="14304.519733,12590.669743 14294.068745,12581.959707 14278.352899,12600.600297 14285.412526,12606.481834 14287.282374,12604.253209 14290.683584,12607.092881 14304.519733,12590.669743"/>
    <poly id="810105105" type="building" color="255,230,230" fill="1" layer="-1.00" shape="14310.567677,12577.596456 14366.528665,12511.223888 14356.077768,12502.502726 14300.116681,12568.886415 14310.567677,12577.596456"/>
    <poly id="810105106" type="building" color="255,230,230" fill="1" layer="-1.00" shape="14313.899931,12520.535089 14325.349489,12530.086836 14346.017915,12505.562034 14334.568229,12496.021346 14313.899931,12520.535089"/>
    <poly id="810105107" type="building" color="255,230,230" fill="1" layer="-1.00" shape="14274.493751,12567.290381 14285.943292,12576.842093 14319.618989,12536.882170 14308.169434,12527.330428 14274.493751,12567.290381"/>
    <poly id="810105108" type="building" color="255,230,230" fill="1" layer="-1.00" shape="14213.241936,12552.058758 14213.403825,12565.664642 14266.287074,12565.063333 14266.251576,12561.894559 14276.528940,12561.773295 14276.402493,12551.347258 14213.241936,12552.058758"/>
    <poly id="810105109" type="building" color="255,230,230" fill="1" layer="-1.00" shape="14161.665224,12564.672214 14205.140643,12563.126830 14204.749838,12552.232646 14161.264406,12553.777924 14161.665224,12564.672214"/>
    <poly id="810105110" type="building" color="255,230,230" fill="1" layer="-1.00" shape="14171.940560,12548.154990 14200.734634,12547.126379 14200.368230,12536.742060 14171.564158,12537.770565 14171.940560,12548.154990"/>
    <poly id="810105111" type="building" color="255,230,230" fill="1" layer="-1.00" shape="14155.800785,12531.329559 14196.890948,12529.869096 14196.485460,12518.487310 14155.385286,12519.947667 14155.800785,12531.329559"/>
    <poly id="810105112" type="building" color="255,230,230" fill="1" layer="-1.00" shape="14108.145546,12539.277426 14150.350574,12534.361383 14148.944227,12522.348380 14106.729185,12527.264320 14108.145546,12539.277426"/>
    <poly id="810105113" type="building" color="255,230,230" fill="1" layer="-1.00" shape="14110.424327,12563.785086 14154.347474,12558.666093 14152.830543,12545.809942 14108.907353,12550.928941 14110.424327,12563.785086"/>
    <poly id="810105114" type="building" color="255,230,230" fill="1" layer="-1.00" shape="14108.686700,12574.999649 14110.203550,12587.866871 14151.339597,12583.072208 14149.822788,12570.204979 14108.686700,12574.999649"/>