<?xml version="1.0" encoding="UTF-8"?>

<!-- generated on 03/28/23 15:53:09 by Eclipse SUMO netconvert Version 1.8.0
<configuration xmlns:xsi="http://www.w3.org/2001/XMLSchema-instance" xsi:noNamespaceSchemaLocation="http://sumo.dlr.de/xsd/netconvertConfiguration.xsd">

    <input>
        <osm-files value="cn.osm"/>
    </input>

    <output>
        <output-file value="cn.net.xml"/>
    </output>

    <projection>
        <proj.utm value="true"/>
    </projection>

    <report>
        <aggregate-warnings value="5"/>
    </report>

</configuration>
-->

<net version="1.6" junctionCornerDetail="5" limitTurnSpeed="5.50" xmlns:xsi="http://www.w3.org/2001/XMLSchema-instance" xsi:noNamespaceSchemaLocation="http://sumo.dlr.de/xsd/net_file.xsd">

    <location netOffset="-625001.87,-2907995.16" convBoundary="0.00,0.00,20978.50,22545.16" origBoundary="112.253215,26.284838,112.464272,26.489344" projParameter="+proj=utm +zone=49 +ellps=WGS84 +datum=WGS84 +units=m +no_defs"/>

    <type id="highway.bridleway" priority="1" numLanes="1" speed="2.78" allow="pedestrian" oneway="1" width="2.00"/>
    <type id="highway.bus_guideway" priority="1" numLanes="1" speed="27.78" allow="bus" oneway="1"/>
    <type id="highway.cycleway" priority="1" numLanes="1" speed="8.33" allow="bicycle" oneway="0" width="1.00"/>
    <type id="highway.footway" priority="1" numLanes="1" speed="2.78" allow="pedestrian" oneway="1" width="2.00"/>
    <type id="highway.ford" priority="1" numLanes="1" speed="2.78" allow="army" oneway="0"/>
    <type id="highway.living_street" priority="2" numLanes="1" speed="2.78" disallow="tram rail_urban rail rail_electric rail_fast ship" oneway="0"/>
    <type id="highway.motorway" priority="14" numLanes="2" speed="39.44" allow="private emergency authority army vip passenger hov taxi bus coach delivery truck trailer motorcycle evehicle custom1 custom2" oneway="1"/>
    <type id="highway.motorway_link" priority="9" numLanes="1" speed="22.22" allow="private emergency authority army vip passenger hov taxi bus coach delivery truck trailer motorcycle evehicle custom1 custom2" oneway="1"/>
    <type id="highway.path" priority="1" numLanes="1" speed="2.78" allow="pedestrian bicycle" oneway="0" width="2.00"/>
    <type id="highway.pedestrian" priority="1" numLanes="1" speed="2.78" allow="pedestrian" oneway="1" width="2.00"/>
    <type id="highway.primary" priority="12" numLanes="2" speed="27.78" disallow="tram rail_urban rail rail_electric rail_fast ship" oneway="0"/>
    <type id="highway.primary_link" priority="7" numLanes="1" speed="22.22" disallow="tram rail_urban rail rail_electric rail_fast ship" oneway="0"/>
    <type id="highway.raceway" priority="15" numLanes="2" speed="83.33" allow="vip" oneway="0"/>
    <type id="highway.residential" priority="3" numLanes="1" speed="13.89" disallow="tram rail_urban rail rail_electric rail_fast ship" oneway="0"/>
    <type id="highway.secondary" priority="11" numLanes="1" speed="27.78" disallow="tram rail_urban rail rail_electric rail_fast ship" oneway="0"/>
    <type id="highway.secondary_link" priority="6" numLanes="1" speed="22.22" disallow="tram rail_urban rail rail_electric rail_fast ship" oneway="0"/>
    <type id="highway.service" priority="1" numLanes="1" speed="5.56" allow="pedestrian delivery bicycle" oneway="0"/>
    <type id="highway.stairs" priority="1" numLanes="1" speed="1.39" allow="pedestrian" oneway="1" width="2.00"/>
    <type id="highway.step" priority="1" numLanes="1" speed="1.39" allow="pedestrian" oneway="1" width="2.00"/>
    <type id="highway.steps" priority="1" numLanes="1" speed="1.39" allow="pedestrian" oneway="1" width="2.00"/>
    <type id="highway.tertiary" priority="10" numLanes="1" speed="22.22" disallow="tram rail_urban rail rail_electric rail_fast ship" oneway="0"/>
    <type id="highway.tertiary_link" priority="5" numLanes="1" speed="22.22" disallow="tram rail_urban rail rail_electric rail_fast ship" oneway="0"/>
    <type id="highway.track" priority="1" numLanes="1" speed="5.56" allow="pedestrian motorcycle moped bicycle" oneway="0"/>
    <type id="highway.trunk" priority="13" numLanes="2" speed="27.78" disallow="pedestrian bicycle tram rail_urban rail rail_electric rail_fast ship" oneway="0"/>
    <type id="highway.trunk_link" priority="8" numLanes="1" speed="22.22" disallow="pedestrian bicycle tram rail_urban rail rail_electric rail_fast ship" oneway="0"/>
    <type id="highway.unclassified" priority="4" numLanes="1" speed="13.89" disallow="tram rail_urban rail rail_electric rail_fast ship" oneway="0"/>
    <type id="highway.unsurfaced" priority="1" numLanes="1" speed="8.33" disallow="tram rail_urban rail rail_electric rail_fast ship" oneway="0"/>
    <type id="railway.highspeed" priority="21" numLanes="1" speed="69.44" allow="rail_fast" oneway="1"/>
    <type id="railway.light_rail" priority="19" numLanes="1" speed="27.78" allow="rail_urban" oneway="1"/>
    <type id="railway.preserved" priority="16" numLanes="1" speed="27.78" allow="rail" oneway="1"/>
    <type id="railway.rail" priority="20" numLanes="1" speed="44.44" allow="rail" oneway="1"/>
    <type id="railway.subway" priority="18" numLanes="1" speed="27.78" allow="rail_urban" oneway="1"/>
    <type id="railway.tram" priority="17" numLanes="1" speed="13.89" allow="tram" oneway="1"/>

    <edge id=":7573900754_0" function="internal">
        <lane id=":7573900754_0_0" index="0" disallow="tram rail_urban rail rail_electric rail_fast ship" speed="6.66" length="9.24" shape="12877.37,14858.00 12876.96,14855.57 12875.84,14853.82 12874.01,14852.74 12871.47,14852.34"/>
    </edge>
    <edge id=":7573900754_1" function="internal">
        <lane id=":7573900754_1_0" index="0" disallow="tram rail_urban rail rail_electric rail_fast ship" speed="22.22" length="14.40" shape="12877.37,14858.00 12877.10,14843.60"/>
    </edge>
    <edge id=":7573900754_2" function="internal">
        <lane id=":7573900754_2_0" index="0" disallow="tram rail_urban rail rail_electric rail_fast ship" speed="3.65" length="2.34" shape="12877.37,14858.00 12878.14,14856.78 12878.94,14856.37"/>
    </edge>
    <edge id=":7573900754_9" function="internal">
        <lane id=":7573900754_9_0" index="0" disallow="tram rail_urban rail rail_electric rail_fast ship" speed="3.65" length="2.34" shape="12878.94,14856.37 12879.74,14856.75 12880.57,14857.94"/>
    </edge>
    <edge id=":7573900754_3" function="internal">
        <lane id=":7573900754_3_0" index="0" disallow="tram rail_urban rail rail_electric rail_fast ship" speed="22.22" length="14.40" shape="12880.30,14843.54 12880.57,14857.94"/>
    </edge>
    <edge id=":7573900754_4" function="internal">
        <lane id=":7573900754_4_0" index="0" disallow="tram rail_urban rail rail_electric rail_fast ship" speed="7.93" length="5.93" shape="12880.30,14843.54 12879.81,14847.46 12878.80,14849.17"/>
    </edge>
    <edge id=":7573900754_5" function="internal">
        <lane id=":7573900754_5_0" index="0" disallow="tram rail_urban rail rail_electric rail_fast ship" speed="3.65" length="2.34" shape="12880.30,14843.54 12879.52,14844.75 12878.73,14845.17"/>
    </edge>
    <edge id=":7573900754_10" function="internal">
        <lane id=":7573900754_10_0" index="0" disallow="tram rail_urban rail rail_electric rail_fast ship" speed="7.93" length="8.41" shape="12878.80,14849.17 12878.17,14850.23 12875.40,14851.86 12871.47,14852.34"/>
    </edge>
    <edge id=":7573900754_11" function="internal">
        <lane id=":7573900754_11_0" index="0" disallow="tram rail_urban rail rail_electric rail_fast ship" speed="3.65" length="2.34" shape="12878.73,14845.17 12877.92,14844.78 12877.10,14843.60"/>
    </edge>
    <edge id=":7573900754_6" function="internal">
        <lane id=":7573900754_6_0" index="0" disallow="tram rail_urban rail rail_electric rail_fast ship" speed="6.42" length="9.04" shape="12871.54,14849.14 12874.01,14848.84 12875.76,14847.81 12876.79,14846.07 12877.10,14843.60"/>
    </edge>
    <edge id=":7573900754_7" function="internal">
        <lane id=":7573900754_7_0" index="0" disallow="tram rail_urban rail rail_electric rail_fast ship" speed="8.13" length="14.25" shape="12871.54,14849.14 12875.43,14849.76 12878.23,14851.43 12879.94,14854.16 12880.57,14857.94"/>
    </edge>
    <edge id=":7573900754_8" function="internal">
        <lane id=":7573900754_8_0" index="0" disallow="tram rail_urban rail rail_electric rail_fast ship" speed="3.65" length="4.67" shape="12871.54,14849.14 12872.72,14849.97 12873.11,14850.77 12872.69,14851.57 12871.47,14852.34"/>
    </edge>
    <edge id=":7573916946_0" function="internal">
        <lane id=":7573916946_0_0" index="0" disallow="tram rail_urban rail rail_electric rail_fast ship" speed="3.65" length="4.67" shape="5276.23,22546.22 5274.83,22546.59 5273.97,22546.36 5273.63,22545.53 5273.83,22544.10"/>
    </edge>
    <edge id=":7573960477_0" function="internal">
        <lane id=":7573960477_0_0" index="0" disallow="tram rail_urban rail rail_electric rail_fast ship" speed="13.89" length="14.40" shape="10380.37,12074.90 10365.99,12075.67"/>
    </edge>
    <edge id=":7573960477_1" function="internal">
        <lane id=":7573960477_1_0" index="0" disallow="tram rail_urban rail rail_electric rail_fast ship" speed="8.00" length="5.93" shape="10380.37,12074.90 10376.49,12074.56 10374.69,12073.60"/>
    </edge>
    <edge id=":7573960477_2" function="internal">
        <lane id=":7573960477_2_0" index="0" disallow="tram rail_urban rail rail_electric rail_fast ship" speed="3.65" length="2.34" shape="10380.37,12074.90 10379.13,12074.16 10378.68,12073.39"/>
    </edge>
    <edge id=":7573960477_9" function="internal">
        <lane id=":7573960477_9_0" index="0" disallow="tram rail_urban rail rail_electric rail_fast ship" speed="8.00" length="8.26" shape="10374.69,12073.60 10373.66,12073.06 10371.86,12070.40 10371.11,12066.58"/>
    </edge>
    <edge id=":7573960477_10" function="internal">
        <lane id=":7573960477_10_0" index="0" disallow="tram rail_urban rail rail_electric rail_fast ship" speed="3.65" length="2.34" shape="10378.68,12073.39 10379.04,12072.57 10380.20,12071.70"/>
    </edge>
    <edge id=":7573960477_3" function="internal">
        <lane id=":7573960477_3_0" index="0" disallow="tram rail_urban rail rail_electric rail_fast ship" speed="6.51" length="9.03" shape="10374.31,12066.41 10374.78,12068.84 10375.93,12070.53 10377.73,12071.49 10380.20,12071.70"/>
    </edge>
    <edge id=":7573960477_4" function="internal">
        <lane id=":7573960477_4_0" index="0" disallow="tram rail_urban rail rail_electric rail_fast ship" speed="8.00" length="14.19" shape="10374.31,12066.41 10373.96,12070.29 10372.46,12073.12 10369.80,12074.92 10365.99,12075.67"/>
    </edge>
    <edge id=":7573960477_5" function="internal">
        <lane id=":7573960477_5_0" index="0" disallow="tram rail_urban rail rail_electric rail_fast ship" speed="3.65" length="4.67" shape="10374.31,12066.41 10373.57,12067.65 10372.79,12068.09 10371.97,12067.74 10371.11,12066.58"/>
    </edge>
    <edge id=":7573960477_6" function="internal">
        <lane id=":7573960477_6_0" index="0" disallow="tram rail_urban rail rail_electric rail_fast ship" speed="6.51" length="9.03" shape="10365.82,12072.48 10368.24,12072.00 10369.94,12070.85 10370.89,12069.05 10371.11,12066.58"/>
    </edge>
    <edge id=":7573960477_7" function="internal">
        <lane id=":7573960477_7_0" index="0" disallow="tram rail_urban rail rail_electric rail_fast ship" speed="13.89" length="14.40" shape="10365.82,12072.48 10380.20,12071.70"/>
    </edge>
    <edge id=":7573960477_8" function="internal">
        <lane id=":7573960477_8_0" index="0" disallow="tram rail_urban rail rail_electric rail_fast ship" speed="3.65" length="2.34" shape="10365.82,12072.48 10367.06,12073.21 10367.50,12073.99"/>
    </edge>
    <edge id=":7573960477_11" function="internal">
        <lane id=":7573960477_11_0" index="0" disallow="tram rail_urban rail rail_electric rail_fast ship" speed="3.65" length="2.34" shape="10367.50,12073.99 10367.14,12074.81 10365.99,12075.67"/>
    </edge>
    <edge id=":7573960478_0" function="internal">
        <lane id=":7573960478_0_0" index="0" allow="pedestrian delivery bicycle" speed="5.04" length="5.00" shape="13631.65,12839.39 13631.46,12838.04 13630.87,12837.07 13629.90,12836.49 13628.54,12836.30"/>
    </edge>
    <edge id=":7573960478_1" function="internal">
        <lane id=":7573960478_1_0" index="0" allow="pedestrian delivery bicycle" speed="5.56" length="10.16" shape="13631.65,12839.39 13632.04,12836.63 13633.21,12834.66 13635.18,12833.47 13637.93,12833.06"/>
    </edge>
    <edge id=":7573960478_2" function="internal">
        <lane id=":7573960478_2_0" index="0" allow="pedestrian delivery bicycle" speed="3.65" length="4.67" shape="13631.65,12839.39 13632.45,12838.19 13633.25,12837.79 13634.05,12838.19 13634.85,12839.38"/>
    </edge>
    <edge id=":7573960478_3" function="internal">
        <lane id=":7573960478_3_0" index="0" allow="pedestrian delivery bicycle" speed="5.04" length="5.00" shape="13637.94,12836.26 13636.59,12836.46 13635.62,12837.05 13635.04,12838.02 13634.85,12839.38"/>
    </edge>
    <edge id=":7573960478_4" function="internal">
        <lane id=":7573960478_4_0" index="0" allow="pedestrian delivery bicycle" speed="5.56" length="9.40" shape="13637.94,12836.26 13628.54,12836.30"/>
    </edge>
    <edge id=":7573960478_5" function="internal">
        <lane id=":7573960478_5_0" index="0" allow="pedestrian delivery bicycle" speed="3.65" length="4.67" shape="13637.94,12836.26 13636.74,12835.47 13636.34,12834.67 13636.73,12833.87 13637.93,12833.06"/>
    </edge>
    <edge id=":7573960478_6" function="internal">
        <lane id=":7573960478_6_0" index="0" allow="pedestrian delivery bicycle" speed="5.56" length="9.40" shape="13628.53,12833.10 13637.93,12833.06"/>
    </edge>
    <edge id=":7573960478_7" function="internal">
        <lane id=":7573960478_7_0" index="0" allow="pedestrian delivery bicycle" speed="5.56" length="10.17" shape="13628.53,12833.10 13631.29,12833.49 13633.26,12834.66 13634.45,12836.63 13634.85,12839.38"/>
    </edge>
    <edge id=":7573960478_8" function="internal">
        <lane id=":7573960478_8_0" index="0" allow="pedestrian delivery bicycle" speed="3.65" length="4.67" shape="13628.53,12833.10 13629.73,12833.90 13630.14,12834.70 13629.74,12835.50 13628.54,12836.30"/>
    </edge>
    <edge id=":7573960503_0" function="internal">
        <lane id=":7573960503_0_0" index="0" disallow="tram rail_urban rail rail_electric rail_fast ship" speed="7.66" length="10.44" shape="15004.58,15854.60 15003.56,15851.67 15002.08,15849.56 15000.15,15848.27 14997.76,15847.81"/>
    </edge>
    <edge id=":7573960503_1" function="internal">
        <lane id=":7573960503_1_0" index="0" disallow="tram rail_urban rail rail_electric rail_fast ship" speed="3.65" length="4.67" shape="15004.58,15854.60 15005.08,15853.25 15005.77,15852.68 15006.64,15852.88 15007.69,15853.87"/>
    </edge>
    <edge id=":7573960503_2" function="internal">
        <lane id=":7573960503_2_0" index="0" disallow="tram rail_urban rail rail_electric rail_fast ship" speed="6.03" length="9.07" shape="15012.36,15848.08 15009.80,15848.40 15008.17,15849.47 15007.46,15851.29 15007.69,15853.87"/>
    </edge>
    <edge id=":7573960503_3" function="internal">
        <lane id=":7573960503_3_0" index="0" disallow="tram rail_urban rail rail_electric rail_fast ship" speed="27.78" length="14.61" shape="15012.36,15848.08 14997.76,15847.81"/>
        <lane id=":7573960503_3_1" index="1" disallow="tram rail_urban rail rail_electric rail_fast ship" speed="27.78" length="14.61" shape="15012.42,15844.88 14997.82,15844.61"/>
    </edge>
    <edge id=":7573960505_0" function="internal">
        <lane id=":7573960505_0_0" index="0" disallow="pedestrian bicycle tram rail_urban rail rail_electric rail_fast ship" speed="27.78" length="14.49" shape="11888.66,13008.70 11877.23,13017.61"/>
        <lane id=":7573960505_0_1" index="1" disallow="pedestrian bicycle tram rail_urban rail rail_electric rail_fast ship" speed="27.78" length="14.49" shape="11886.70,13006.18 11875.26,13015.08"/>
    </edge>
    <edge id=":7573960505_2" function="internal">
        <lane id=":7573960505_2_0" index="0" disallow="pedestrian bicycle tram rail_urban rail rail_electric rail_fast ship" speed="8.36" length="5.74" shape="11886.70,13006.18 11882.72,13008.27 11881.47,13008.22"/>
    </edge>
    <edge id=":7573960505_3" function="internal">
        <lane id=":7573960505_3_0" index="0" disallow="pedestrian bicycle tram rail_urban rail rail_electric rail_fast ship" speed="3.65" length="2.34" shape="11886.70,13006.18 11885.26,13006.28 11884.45,13005.90"/>
    </edge>
    <edge id=":7573960505_11" function="internal">
        <lane id=":7573960505_11_0" index="0" disallow="pedestrian bicycle tram rail_urban rail rail_electric rail_fast ship" speed="8.36" length="12.14" shape="11881.47,13008.22 11879.04,13008.11 11875.67,13005.71 11872.61,13001.06"/>
    </edge>
    <edge id=":7573960505_12" function="internal">
        <lane id=":7573960505_12_0" index="0" disallow="pedestrian bicycle tram rail_urban rail rail_electric rail_fast ship" speed="3.65" length="2.34" shape="11884.45,13005.90 11884.27,13005.02 11884.73,13003.65"/>
    </edge>
    <edge id=":7573960505_4" function="internal">
        <lane id=":7573960505_4_0" index="0" disallow="pedestrian bicycle tram rail_urban rail rail_electric rail_fast ship" speed="6.11" length="9.02" shape="11875.42,12999.52 11876.87,13001.59 11878.58,13002.55 11880.54,13002.40 11882.76,13001.13"/>
    </edge>
    <edge id=":7573960505_5" function="internal">
        <lane id=":7573960505_5_0" index="0" disallow="pedestrian bicycle tram rail_urban rail rail_electric rail_fast ship" speed="9.36" length="16.88" shape="11875.42,12999.52 11877.50,13004.65 11878.17,13008.95 11877.43,13012.43 11875.26,13015.08"/>
    </edge>
    <edge id=":7573960505_6" function="internal">
        <lane id=":7573960505_6_0" index="0" disallow="tram rail_urban rail rail_electric rail_fast ship" speed="3.65" length="4.68" shape="11875.42,12999.52 11875.29,13000.96 11874.78,13001.69 11873.89,13001.73 11872.61,13001.06"/>
    </edge>
    <edge id=":7573960505_7" function="internal">
        <lane id=":7573960505_7_0" index="0" disallow="pedestrian bicycle tram rail_urban rail rail_electric rail_fast ship" speed="7.31" length="9.94" shape="11871.33,13010.04 11872.97,13008.26 11873.73,13006.17 11873.61,13003.77 11872.61,13001.06"/>
    </edge>
    <edge id=":7573960505_8" function="internal">
        <lane id=":7573960505_8_0" index="0" disallow="pedestrian bicycle tram rail_urban rail rail_electric rail_fast ship" speed="27.78" length="14.49" shape="11871.33,13010.04 11882.76,13001.13"/>
        <lane id=":7573960505_8_1" index="1" disallow="pedestrian bicycle tram rail_urban rail rail_electric rail_fast ship" speed="27.78" length="14.49" shape="11873.29,13012.56 11884.73,13003.65"/>
    </edge>
    <edge id=":7573960505_10" function="internal">
        <lane id=":7573960505_10_0" index="0" disallow="pedestrian bicycle tram rail_urban rail rail_electric rail_fast ship" speed="3.65" length="2.34" shape="11873.29,13012.56 11874.73,13012.45 11875.54,13012.84"/>
    </edge>
    <edge id=":7573960505_13" function="internal">
        <lane id=":7573960505_13_0" index="0" disallow="pedestrian bicycle tram rail_urban rail rail_electric rail_fast ship" speed="3.65" length="2.34" shape="11875.54,13012.84 11875.72,13013.72 11875.26,13015.08"/>
    </edge>
    <edge id=":7573960509_0" function="internal">
        <lane id=":7573960509_0_0" index="0" allow="pedestrian delivery bicycle" speed="5.56" length="9.63" shape="11303.55,14093.42 11301.01,14092.46 11299.08,14092.56 11297.04,14093.08 11294.17,14093.39"/>
    </edge>
    <edge id=":7573960509_1" function="internal">
        <lane id=":7573960509_1_0" index="0" allow="pedestrian delivery bicycle" speed="5.56" length="9.20" shape="11303.55,14093.42 11300.81,14091.72 11298.85,14090.10 11297.68,14088.56 11297.29,14087.10"/>
    </edge>
    <edge id=":7573960509_2" function="internal">
        <lane id=":7573960509_2_0" index="0" allow="pedestrian delivery bicycle" speed="3.90" length="4.67" shape="11303.55,14093.42 11302.35,14092.61 11301.96,14091.80 11302.37,14091.01 11303.57,14090.22"/>
    </edge>
    <edge id=":7573960509_3" function="internal">
        <lane id=":7573960509_3_0" index="0" allow="pedestrian delivery bicycle" speed="5.04" length="4.99" shape="11300.49,14087.11 11300.68,14088.47 11301.26,14089.44 11302.22,14090.02 11303.57,14090.22"/>
    </edge>
    <edge id=":7573960509_4" function="internal">
        <lane id=":7573960509_4_0" index="0" allow="pedestrian delivery bicycle" speed="5.56" length="10.16" shape="11300.49,14087.11 11300.09,14089.87 11298.91,14091.83 11296.93,14093.01 11294.17,14093.39"/>
    </edge>
    <edge id=":7573960509_5" function="internal">
        <lane id=":7573960509_5_0" index="0" allow="pedestrian delivery bicycle" speed="3.65" length="4.67" shape="11300.49,14087.11 11299.69,14088.31 11298.89,14088.71 11298.09,14088.30 11297.29,14087.10"/>
    </edge>
    <edge id=":7573960509_6" function="internal">
        <lane id=":7573960509_6_0" index="0" allow="pedestrian delivery bicycle" speed="5.04" length="5.00" shape="11294.18,14090.19 11295.54,14090.00 11296.51,14089.43 11297.10,14088.46 11297.29,14087.10"/>
    </edge>
    <edge id=":7573960509_7" function="internal">
        <lane id=":7573960509_7_0" index="0" allow="pedestrian delivery bicycle" speed="5.56" length="9.39" shape="11294.18,14090.19 11303.57,14090.22"/>
    </edge>
    <edge id=":7573960509_8" function="internal">
        <lane id=":7573960509_8_0" index="0" allow="pedestrian delivery bicycle" speed="3.65" length="4.67" shape="11294.18,14090.19 11295.38,14091.00 11295.78,14091.80 11295.38,14092.60 11294.17,14093.39"/>
    </edge>
    <edge id=":7573960703_0" function="internal">
        <lane id=":7573960703_0_0" index="0" allow="pedestrian delivery bicycle" speed="5.38" length="5.41" shape="13797.90,14899.83 13796.61,14900.16 13795.68,14900.91 13795.11,14902.07 13794.91,14903.65"/>
    </edge>
    <edge id=":7573960703_1" function="internal">
        <lane id=":7573960703_1_0" index="0" disallow="tram rail_urban rail rail_electric rail_fast ship" speed="13.89" length="9.43" shape="13797.90,14899.83 13788.50,14900.62"/>
    </edge>
    <edge id=":7573960703_2" function="internal">
        <lane id=":7573960703_2_0" index="0" disallow="tram rail_urban rail rail_electric rail_fast ship" speed="3.65" length="2.34" shape="13797.90,14899.83 13796.64,14899.13 13796.17,14898.37"/>
    </edge>
    <edge id=":7573960703_9" function="internal">
        <lane id=":7573960703_9_0" index="0" disallow="tram rail_urban rail rail_electric rail_fast ship" speed="3.65" length="2.34" shape="13796.17,14898.37 13796.50,14897.54 13797.63,14896.64"/>
    </edge>
    <edge id=":7573960703_3" function="internal">
        <lane id=":7573960703_3_0" index="0" disallow="tram rail_urban rail rail_electric rail_fast ship" speed="13.89" length="9.43" shape="13788.24,14897.43 13797.63,14896.64"/>
    </edge>
    <edge id=":7573960703_4" function="internal">
        <lane id=":7573960703_4_0" index="0" allow="pedestrian delivery bicycle" speed="6.79" length="5.16" shape="13788.24,14897.43 13791.19,14897.60 13793.14,14898.62"/>
    </edge>
    <edge id=":7573960703_5" function="internal">
        <lane id=":7573960703_5_0" index="0" disallow="tram rail_urban rail rail_electric rail_fast ship" speed="3.65" length="2.34" shape="13788.24,14897.43 13789.50,14898.12 13789.96,14898.89"/>
    </edge>
    <edge id=":7573960703_10" function="internal">
        <lane id=":7573960703_10_0" index="0" allow="pedestrian delivery bicycle" speed="6.79" length="5.49" shape="13793.14,14898.62 13793.29,14898.70 13794.53,14900.71 13794.91,14903.65"/>
    </edge>
    <edge id=":7573960703_11" function="internal">
        <lane id=":7573960703_11_0" index="0" disallow="tram rail_urban rail rail_electric rail_fast ship" speed="3.65" length="2.34" shape="13789.96,14898.89 13789.63,14899.72 13788.50,14900.62"/>
    </edge>
    <edge id=":7573960703_6" function="internal">
        <lane id=":7573960703_6_0" index="0" allow="pedestrian delivery bicycle" speed="4.94" length="5.12" shape="13791.71,14903.61 13791.53,14902.20 13790.93,14901.23 13789.92,14900.70 13788.50,14900.62"/>
    </edge>
    <edge id=":7573960703_7" function="internal">
        <lane id=":7573960703_7_0" index="0" allow="pedestrian delivery bicycle" speed="7.12" length="10.21" shape="13791.71,14903.61 13792.11,14900.74 13793.23,14898.63 13795.07,14897.26 13797.63,14896.64"/>
    </edge>
    <edge id=":7573960703_8" function="internal">
        <lane id=":7573960703_8_0" index="0" allow="pedestrian delivery bicycle" speed="3.65" length="4.67" shape="13791.71,14903.61 13792.53,14902.42 13793.33,14902.03 13794.13,14902.44 13794.91,14903.65"/>
    </edge>
    <edge id=":7573960886_0" function="internal">
        <lane id=":7573960886_0_0" index="0" disallow="tram rail_urban rail rail_electric rail_fast ship" speed="7.64" length="10.42" shape="12081.73,13268.18 12080.74,13265.25 12079.28,13263.14 12077.35,13261.84 12074.97,13261.37"/>
    </edge>
    <edge id=":7573960886_1" function="internal">
        <lane id=":7573960886_1_0" index="0" disallow="tram rail_urban rail rail_electric rail_fast ship" speed="7.63" length="15.23" shape="12081.73,13268.18 12081.38,13263.86 12082.58,13260.81 12085.33,13259.03 12089.64,13258.51"/>
    </edge>
    <edge id=":7573960886_2" function="internal">
        <lane id=":7573960886_2_0" index="0" disallow="tram rail_urban rail rail_electric rail_fast ship" speed="3.65" length="4.67" shape="12081.73,13268.18 12082.25,13266.84 12082.94,13266.27 12083.81,13266.48 12084.85,13267.47"/>
    </edge>
    <edge id=":7573960886_3" function="internal">
        <lane id=":7573960886_3_0" index="0" disallow="tram rail_urban rail rail_electric rail_fast ship" speed="6.04" length="9.07" shape="12089.56,13261.71 12087.00,13262.02 12085.36,13263.08 12084.64,13264.90 12084.85,13267.47"/>
    </edge>
    <edge id=":7573960886_4" function="internal">
        <lane id=":7573960886_4_0" index="0" disallow="tram rail_urban rail rail_electric rail_fast ship" speed="22.22" length="14.60" shape="12089.56,13261.71 12074.97,13261.37"/>
    </edge>
    <edge id=":7573960886_5" function="internal">
        <lane id=":7573960886_5_0" index="0" disallow="tram rail_urban rail rail_electric rail_fast ship" speed="3.65" length="2.34" shape="12089.56,13261.71 12088.38,13260.89 12088.00,13260.08"/>
    </edge>
    <edge id=":7573960886_9" function="internal">
        <lane id=":7573960886_9_0" index="0" disallow="tram rail_urban rail rail_electric rail_fast ship" speed="3.65" length="2.34" shape="12088.00,13260.08 12088.42,13259.29 12089.64,13258.51"/>
    </edge>
    <edge id=":7573960886_6" function="internal">
        <lane id=":7573960886_6_0" index="0" disallow="tram rail_urban rail rail_electric rail_fast ship" speed="22.22" length="14.60" shape="12075.04,13258.17 12089.64,13258.51"/>
    </edge>
    <edge id=":7573960886_7" function="internal">
        <lane id=":7573960886_7_0" index="0" disallow="tram rail_urban rail rail_electric rail_fast ship" speed="8.97" length="5.59" shape="12075.04,13258.17 12078.55,13258.82 12080.26,13259.89"/>
    </edge>
    <edge id=":7573960886_8" function="internal">
        <lane id=":7573960886_8_0" index="0" disallow="tram rail_urban rail rail_electric rail_fast ship" speed="3.65" length="2.34" shape="12075.04,13258.17 12076.22,13259.00 12076.60,13259.81"/>
    </edge>
    <edge id=":7573960886_10" function="internal">
        <lane id=":7573960886_10_0" index="0" disallow="tram rail_urban rail rail_electric rail_fast ship" speed="8.97" length="9.11" shape="12080.26,13259.89 12081.36,13260.59 12083.46,13263.47 12084.85,13267.47"/>
    </edge>
    <edge id=":7573960886_11" function="internal">
        <lane id=":7573960886_11_0" index="0" disallow="tram rail_urban rail rail_electric rail_fast ship" speed="3.65" length="2.34" shape="12076.60,13259.81 12076.18,13260.60 12074.97,13261.37"/>
    </edge>
    <edge id=":7573960893_0" function="internal">
        <lane id=":7573960893_0_0" index="0" disallow="tram rail_urban rail rail_electric rail_fast ship" speed="3.65" length="4.67" shape="12125.53,13566.32 12124.76,13567.54 12123.97,13567.96 12123.16,13567.57 12122.33,13566.39"/>
    </edge>
    <edge id=":7573960922_0" function="internal">
        <lane id=":7573960922_0_0" index="0" disallow="tram rail_urban rail rail_electric rail_fast ship" speed="3.65" length="4.67" shape="11930.03,13025.89 11930.15,13024.45 11930.65,13023.71 11931.54,13023.67 11932.83,13024.32"/>
    </edge>
    <edge id=":7573960926_0" function="internal">
        <lane id=":7573960926_0_0" index="0" disallow="tram rail_urban rail rail_electric rail_fast ship" speed="22.22" length="14.40" shape="11966.91,13258.87 11952.52,13258.57"/>
    </edge>
    <edge id=":7573960926_1" function="internal">
        <lane id=":7573960926_1_0" index="0" disallow="tram rail_urban rail rail_electric rail_fast ship" speed="7.99" length="5.93" shape="11966.91,13258.87 11963.06,13258.23 11961.35,13257.15"/>
    </edge>
    <edge id=":7573960926_2" function="internal">
        <lane id=":7573960926_2_0" index="0" disallow="tram rail_urban rail rail_electric rail_fast ship" speed="3.65" length="2.34" shape="11966.91,13258.87 11965.73,13258.04 11965.35,13257.23"/>
    </edge>