<?xml version="1.0" encoding="UTF-8"?>

<!-- generated on 03/28/23 15:53:55 by Eclipse SUMO duarouter Version 1.8.0
<configuration xmlns:xsi="http://www.w3.org/2001/XMLSchema-instance" xsi:noNamespaceSchemaLocation="http://sumo.dlr.de/xsd/duarouterConfiguration.xsd">

    <input>
        <net-file value="cn.net.xml"/>
        <route-files value="cn.trips.xml"/>
    </input>

    <output>
        <output-file value="cn.rou.xml"/>
        <alternatives-output value="cn.rou.alt.xml"/>
    </output>

    <report>
        <ignore-errors value="true"/>
    </report>

</configuration>
-->

<routes xmlns:xsi="http://www.w3.org/2001/XMLSchema-instance" xsi:noNamespaceSchemaLocation="http://sumo.dlr.de/xsd/routes_file.xsd">
    <vehicle id="0" depart="0.00">
        <route edges="810109349 810109363#0 810109363#1 810109360#1 -810109362#1 -810109362#0 -810109773#1 810110027#0 810110027#1 810110027#2 810110027#3 810110027#4 810110027#5 810110027#6 810110027#7 810110027#8 810110027#9 -810100080#1 -810100080#0"/>
    </vehicle>
    <vehicle id="1" depart="1.00">
        <route edges="-810109611#3 -810109611#2 -810109611#1 -810109611#0 810110027#1 810110027#2 810110027#3 810110027#4 810109802#15 810110045#10 810110045#11 810110045#12 810110045#13 810110025 810109359 810109360#0 -810109363#1 -810109363#0 -810109349"/>
    </vehicle>
    <vehicle id="2" depart="2.00">
        <route edges="810109782#4 -810109782#4 -810109782#3 -810109782#2 -810109782#1 -810109782#0 810105095#0 810105095#1 810105095#2 810105095#3 810105095#4 810105091 810105093 810109802#0 810109802#1 810109802#2 810109802#3 810109787#4 810109787#5 810109787#6 810109787#7 810109787#8 -810109673#4 -810109673#3 -810109673#2 -810109673#1 -810109673#0 810109556#3 810109559#0"/>
    </vehicle>
    <vehicle id="3" depart="3.00">
        <route edges="810110046#4 810110047#0 810110047#1 810110047#2 810110047#3 810110047#4 810110042#0 -810108050"/>
    </vehicle>
    <vehicle id="4" depart="4.00">
        <route edges="810100080#0 -810100080#0"/>
    </vehicle>
    <vehicle id="5" depart="5.00">
        <route edges="-810109316#2 -810109316#1 -810109316#0 810109801#16 810109801#17 810105092 810105090#0 810105090#1 810105094#0 810105094#1 810105094#2 810105094#3 810105094#4 810105094#5 810109782#0 810109782#1 810109782#2 810109782#3 810109782#4 810110094#2 810110094#3 810110047#1 810110047#2 810110047#3 810110047#4 810110042#0 -810110042#0 810110048#0 -810108815#4 -810108815#3 -810108815#2 -810108815#1 810108815#1"/>
    </vehicle>
    <vehicle id="6" depart="6.00">
        <route edges="-810106023 810110093#3 810110093#4 810110048#4 810110048#5 -810110046#4 -810110046#3 -810110046#2 -810110046#1 -810110046#0 -810105088#8 -810105088#7 -810105088#6 -810105088#5 -810105088#4 -810105088#3 -810105088#2 -810105088#1 -810105088#0 -810109524 -810109525#1 -810109525#0 -810109772 -810109773#6 810109787#1 810109778#0 810109778#1 810109778#2 810109777 810109776#0 -810109131"/>
    </vehicle>
    <vehicle id="7" depart="7.00">
        <route edges="810109361#1 -810109359 810110024 810109773#1 810109773#2 810109773#3 810109773#4 810109773#5 810109773#6 810109772 810109525#0 810109525#1 810109524 810105088#0 810105088#1 810105088#2 810105088#3 810105088#4 810105088#5 810105088#6 810105088#7 810105088#8 810110046#0 810110046#1 810110046#2 810110046#3 810110046#4 810110047#0 810110047#1 810110093#4 810110093#5 810110093#6 810110093#7 810110093#8 810110088 810110090 810110022#0 810108895#0 810108895#1 810108895#2"/>
    </vehicle>
    <vehicle id="8" depart="8.00">
        <route edges="-810109356#0 810109365#2 810109363#0 810109363#1 810109360#1 -810109362#1 -810109362#0 -810109773#1 810110027#0 810110027#1 810110027#2 810110027#3 810110027#4 810110027#5 810110027#6 810110027#7 810110027#8 810110027#9 -810100080#1 -810109094#1 -810109094#0 810109096"/>
    </vehicle>
    <vehicle id="9" depart="9.00">
        <route edges="810109805#5 810109805#6 810109805#7 810109804 810105083#0 810105083#1 810105086#0 810105084 810109803 810109806#0 810109806#1 810109806#2 810109806#3 810109806#4 810109806#5 810109806#6 810109806#7 810110022#3 810110022#4 810110022#5 810110022#6 810110021 810110020#0 810110020#1 810110020#2 810110020#3 810110027#9 -810100080#1 -810100080#0"/>
    </vehicle>
    <vehicle id="10" depart="10.00">
        <route edges="810109805#0 810110022#4 810110022#5 810110022#6 810110021 810110020#0 810110020#1 810109788#0 810109788#1 810109788#2 810109788#3 -810109673#3 -810109673#2 810109673#2"/>
    </vehicle>
    <vehicle id="11" depart="11.00">
        <route edges="-810110032#1 -810110032#0 810110039#3 810110039#4 810110039#5 810110186#1 810110186#2 810110186#3 810110186#4 810110186#5 810110186#6 810110186#7 810110186#8 810110186#9 810110046#0 810110046#1 810110046#2 810110046#3 810110046#4 810110047#0 810110047#1 810110093#4 810110093#5 810110093#6 810110093#7 810109062#0 810109062#1 810109062#2 810109060 810109061#0 -810109059#1 -810109059#0 -810109057#0"/>
    </vehicle>
    <vehicle id="12" depart="12.00">
        <route edges="810110176#0 810110176#1 810109773#0 810110027#0 810110027#1 810110027#2 810110027#3 810110027#4 810110027#5 810109796#0 -810109796#0"/>
    </vehicle>
    <vehicle id="13" depart="13.00">
        <route edges="-810108815#1 810108815#1 810108815#2 810108815#3 810108815#4 810110048#1 810110048#2 810110048#3 810110093#5 810110093#6 810110093#7 810110093#8 810110088 810110090 810110022#0 810110022#1 810110022#2 810110022#3 810110022#4 810110022#5 810110022#6 810110021 810110020#0 810109789#0 -810108369"/>
    </vehicle>
    <vehicle id="14" depart="14.00">
        <route edges="810110026 810110089 810110094#0 810110094#1 810110094#2 810110048#5 -810110046#4 -810110046#3 -810110046#2 -810110046#1 -810110046#0 -810105088#8 810110185#0 810110185#1 810110185#2 810110185#3 810110185#4 810110185#5 810110040#6 810110040#7 810110040#8 810110040#9 -810109129 810109130#1"/>
    </vehicle>
    <vehicle id="15" depart="15.00">
        <route edges="810109805#0 810109805#1 810109805#2 810109805#3 810109805#4 810109805#5 810109805#6 810109805#7 810109804 810105083#0 810105083#1 810105081#0 810105081#1 810105081#2 810105081#3 810105081#4 810110185#0 810110185#1 810110185#2 810110185#3 810110185#4 810110185#5 810110040#6 810110040#7 810109785#1"/>
    </vehicle>
    <vehicle id="16" depart="16.00">
        <route edges="810108813 810108812 810108814 -810108814 -810108812 -810108813 810108815#1 810108815#2 810108815#3 810108815#4 810110048#1 810110048#2 810110048#3 810110048#4 810110094#3 810110094#4 810110094#5 810110094#6"/>
    </vehicle>
    <vehicle id="17" depart="17.00">
        <route edges="-810110042#0 810110048#0 810110048#1 810110048#2 810110048#3 810110093#5 810110093#6 810110093#7 810110093#8 810110088 810110090 810110022#0 810108895#0 810108895#1 810108895#2"/>
    </vehicle>
    <vehicle id="18" depart="18.00">
        <route edges="810110022#4 810109791#1 810109793#0 810109793#1 810109793#2 810109793#3 810109793#4 810109793#5 810109793#6 810109792 810105079#0 810105079#1 810105079#2 810109780#0 810109230#1"/>
    </vehicle>
    <vehicle id="19" depart="19.00">
        <route edges="810110039#6 -810108793#2 810110040#3 810110040#4 810110040#5 810110040#6 810110040#7 810109785#1 810109785#2 810109783 810109787#0 810109787#1 810109787#2 810109787#3 810109802#4 810109802#5 810109802#6 810109802#7 810109802#8 810109802#9 810109802#10 810109802#11 810109802#12 810109802#13 810109802#14 810109802#15 810110045#10 810110045#11 810110045#12 -810109095 -810109096 810109094#0"/>
    </vehicle>
    <vehicle id="20" depart="20.00">
        <route edges="810109612#2 810109611#1 810109611#2 810109611#3 810109611#4 810109611#5 810109611#6 810109778#0 810109778#1 810109778#2 810109777 810109776#0 810109776#1 -810109774#1 810109779#0 810109779#1 -810105073"/>
    </vehicle>
    <vehicle id="21" depart="21.00">
        <route edges="-810109363#0 810109363#0 810109363#1 810109360#1 -810109362#1 -810109362#0 -810109773#1 810110027#0 810109611#0 -810109612#2"/>
    </vehicle>
    <vehicle id="22" depart="22.00">
        <route edges="-810108793#1 810108793#1 810110040#3 810110040#4 810110040#5 810110040#6 810110040#7 810109785#1 810109785#2 810109783 810109787#0 -810109773#5 -810109773#4 -810109773#3 -810109773#2 810109362#0 810109362#1 810109362#2 810105055#2 -810109256#0 -810109363#0 -810109365#2 810109356#0 -810109356#0"/>
    </vehicle>
    <vehicle id="23" depart="23.00">
        <route edges="-810108835#1 -810108835#0 810110023#1 810110023#2 810109805#2 810109805#3 810109805#4 -810109607"/>
    </vehicle>
    <vehicle id="24" depart="24.00">
        <route edges="810109349 810109363#0 810109363#1 810109360#1 -810109362#1 -810109362#0 -810109773#1 -810109773#0 -810110176#1 -810110176#0"/>
    </vehicle>
    <vehicle id="25" depart="25.00">
        <route edges="-810110032#1 -810110032#0 810110039#3 810110039#4 810110039#5 810110186#1 810110186#2 810110186#3 810110186#4 810110186#5 810110186#6 810110186#7 810110186#8 810110186#9 810105080#0 810105080#1 810105080#2 810105080#3 810105080#4 810105080#5 810105080#6 810105085 -810105086#0 810105081#0 -810109230#3"/>
    </vehicle>
    <vehicle id="26" depart="26.00">
        <route edges="-810109607 810109793#4 810109793#5 810109793#6 810109792 810105079#0 810105079#1 810105079#2 810109795#0 810109795#1 810109795#2 810109795#3 810109795#4 810105086#0 810105086#1 810109794#0 810109794#1 810109782#0 810109782#1 810109782#2 810109782#3 810109782#4 810110094#2 810110094#3 810110047#1 810110047#2 810110047#3 810110047#4"/>
    </vehicle>
    <vehicle id="27" depart="27.00">
        <route edges="810109360#0 810109360#1 -810109362#1 -810109362#0 810109773#2 810109773#3 810109773#4 810109773#5 810109787#1 810109787#2 810109787#3 810109787#4 810109787#5 810109224#0 810109224#1 810109224#2 -810109797#4 810109154#0"/>
    </vehicle>
    <vehicle id="28" depart="28.00">
        <route edges="-810109094#1 810109094#1 810100080#1 810110045#0 810110045#1 810110019#0 810110019#1 810109788#1 810109788#2 810109788#3 810109788#4 810109788#5 810109788#6 810109788#7 810109788#8 810109788#9 810109788#10 810109788#11 810109788#12 810109788#13 810109784"/>
    </vehicle>
    <vehicle id="29" depart="29.00">
        <route edges="-810109094#0 810109096 810109095 810110045#13 -810110176#1 -810110176#0"/>
    </vehicle>
    <vehicle id="30" depart="30.00">
        <route edges="810110185#8 810110186#0 810110186#1 810110040#5 810110040#6 810110040#7 810109785#1 810109785#2 810109783 810109787#0 -810109773#5 -810109773#4 -810109773#3 -810109773#2 810109362#0 810109362#1 810109360#2 -810105056#1 810109361#0"/>
    </vehicle>
    <vehicle id="31" depart="31.00">
        <route edges="810108895#0 -810108895#0 810110022#1 810110022#2 810110022#3 810109805#1 810109805#2 810109805#3 810109805#4 810109805#5 810109805#6 810109805#7 810109804 810105083#0 810105083#1 810105081#0 810105081#1 810105081#2 810105081#3 810105081#4 810105088#8 810105080#0 810105080#1 810109608#0"/>
    </vehicle>
    <vehicle id="32" depart="32.00">
        <route edges="810110023#4 810110026 810110089 810110094#0 810110094#1 -810109782#4 -810109782#3 -810109782#2 -810109782#1 -810109782#0 810105095#0 810105095#1 810105095#2 810105095#3 810105095#4 810105091 810105093 810109802#0 810109802#1 810109802#2 810109802#3 810109802#4 810109802#5 810109802#6 810109802#7 810109802#8 810109802#9 810109802#10 810109802#11 810109802#12 810109802#13 810109802#14 810109802#15 810110045#10 810110045#11 -810107039#1 810107038#1 810109799#3"/>
    </vehicle>
    <vehicle id="33" depart="33.00">
        <route edges="-810109363#1 810109363#1 810109360#1 -810109362#1 -810109362#0 -810109773#1 810110027#0 810110027#1 810110027#2 810110027#3 810110027#4 810110027#5 810110027#6 810110027#7 810110027#8 810110027#9 -810100080#1 -810100080#0"/>
    </vehicle>
    <vehicle id="34" depart="34.00">
        <route edges="-810109793#5 810109793#5 810109793#6 810109792 810105079#0 810105079#1 810105079#2 810109780#0 810109780#1 810109780#2 810105095#3 810105095#4 810105091 810105093 810109802#0 810109802#1 810109802#2 810109802#3 810109802#4 810109802#5 810109802#6 810109802#7 810109802#8 810109802#9 810109802#10 810109802#11 -810109559#1 -810109559#0 -810109556#3"/>
    </vehicle>
    <vehicle id="35" depart="35.00">
        <route edges="-810109247 810109608#11 810109781#1 810110046#3 810110046#4 810110047#0 810110047#1 810110093#4 810110093#5 810108827#0 810108810#2 810110048#3"/>
    </vehicle>
    <vehicle id="36" depart="36.00">
        <route edges="810110040#7 810109785#1 810109785#2 810109783 810109787#0 810109787#1 810109787#2 810109801#14 810109801#15 810109801#16 810109801#17 810105092 810105090#0 810105090#1 810105094#0 810105094#1 -810109779#3"/>
    </vehicle>
    <vehicle id="37" depart="37.00">
        <route edges="810109363#1 810109360#1 -810109362#1 -810109362#0 -810109773#1 810110027#0 810110027#1 810110027#2 810110027#3 810110027#4 810110027#5 810110027#6 810110027#7 810110027#8 810110027#9 -810100080#1 810100080#1"/>
    </vehicle>
    <vehicle id="38" depart="38.00">
        <route edges="810110093#3 810110093#4 810110048#4 810110048#5 -810110046#4 -810110046#3 -810110046#2 -810110046#1 -810110046#0 810105080#0 810105080#1 810105080#2 810105080#3 810105080#4 810105080#5 810105080#6 810105085 810105084 810109803 810109806#0 810109806#1 810109806#2 810109806#3 810109806#4 810108868#2 810109805#3 810109805#4 810109805#5 -810106421#1 810106421#1"/>
    </vehicle>
    <vehicle id="39" depart="39.00">
        <route edges="-810109606#0 810105094#3 810105081#4 -810105088#7 -810105088#6 -810105088#5 -810105088#4 -810105088#3 -810105088#2 -810105088#1 -810105088#0 -810109524 -810109525#1 -810109525#0 -810109772 -810109773#6 -810109773#5 -810109773#4 -810109773#3 -810109773#2 810109362#0 810109362#1 810109362#2 810105055#2 -810109256#0 -810109363#0 -810109365#2"/>
    </vehicle>
    <vehicle id="40" depart="40.00">
        <route edges="810108895#1 -810108895#1 -810108895#0 810110022#1 810110022#2 810110022#3 810109805#1 810109805#2 810109805#3 810109805#4 810109805#5 810109805#6 810109805#7 810109804 810105083#0 810105083#1 810105081#0 810105081#1 810105081#2 810105095#2 810105095#3 810105095#4 810105091 810105093 810109802#0 810109802#1 810109802#2 810109802#3 810109802#4 810109788#6 810109788#7 810109788#8 810109788#9 -810108654#3 -810108654#2 -810109554#2"/>
    </vehicle>
    <vehicle id="41" depart="41.00">
        <route edges="810109094#0 810109094#1 810100080#1 810110045#0 810110045#1 810110019#0 810110019#1 810109788#1 810109788#2 810109788#3 810109788#4 810109788#5 810109788#6 810109788#7 810109788#8 810109788#9 810109788#10 810109788#11 810109788#12 810109788#13 810109784 810109786#0 810109786#1 810109786#2 810110039#1 810110039#2 810110039#3 810110039#4 810110039#5 810110039#6"/>
    </vehicle>
    <vehicle id="42" depart="42.00">
        <route edges="810100080#0 810100080#1 810110045#0 810110045#1 810110045#2 810110045#3 810110045#4 810110045#5 810110045#6 810110045#7 810110045#8 810110045#9 810110045#10 810110045#11 810110045#12 810110045#13 810110025 810109359 810109360#0 -810109363#1 810109256#0 810109256#1 -810109256#1"/>
    </vehicle>
    <vehicle id="43" depart="43.00">
        <route edges="810110186#7 810110186#8 810110186#9 810110046#0 810110046#1 810110046#2 810110046#3 810110046#4 810110047#0 810110047#1 810110093#4 810110093#5 810110093#6 810108826"/>
    </vehicle>
    <vehicle id="44" depart="44.00">
        <route edges="-810108813 810108815#1 810108815#2 810108815#3 810108815#4 810110048#1 810110048#2 810110048#3 810110048#4 810110048#5 -810110046#4 -810110046#3 -810110046#2 -810110046#1 -810110046#0 -810105088#8 -810105088#7 -810105078"/>
    </vehicle>
    <vehicle id="45" depart="45.00">
        <route edges="-810108875 810105079#2 810109795#0 810109795#1 810109795#2 810109795#3 810109795#4 810105086#0 810105086#1 810109794#0 810109794#1 810109782#0 810109248 810109608#8 810109250"/>
    </vehicle>
    <vehicle id="46" depart="46.00">
        <route edges="810109801#1 810109801#2 810109612#0 810109612#1 810109612#2 -810109611#0 810110027#1 810110027#2 810110027#3 810110027#4 810110027#5 810110027#6 810105089#0"/>
    </vehicle>
    <vehicle id="47" depart="47.00">
        <route edges="-810107835#3 -810107835#2 -810107835#1 -810107835#0 -810109522#3 -810109522#2 -810109522#1 -810109522#0 -810109526 -810105088#1 -810105088#0 -810109524 -810109525#1 -810109525#0 -810109772 -810109773#6 -810109773#5 -810109773#4 -810109773#3 -810109773#2 -810109773#1 -810109773#0 -810110176#1 -810110176#0"/>
    </vehicle>
    <vehicle id="48" depart="48.00">
        <route edges="810110186#4 810110186#5 810110186#6 810110186#7 810110186#8 810110186#9 810110046#0 810110046#1 810110046#2 810110046#3 810110046#4 810110047#0 810110047#1 810110093#4 810110093#5 810110093#6 810110093#7 810110093#8 810110088 810110090 810110022#0 810108895#0 810108895#1"/>
    </vehicle>
    <vehicle id="49" depart="49.00">
        <route edges="810110176#0 810110176#1 810109773#0 810109773#1 810109773#2 810109773#3 810109773#4 810109788#13 810109784 810109786#0 810109786#1 810109786#2 810110039#1 810110039#2 810110032#0 810110032#1"/>
    </vehicle>
    <vehicle id="50" depart="50.00">
        <route edges="-810105074#1 810105094#0 810105094#1 -810109780#3 -810109780#2 -810109780#1 -810109780#0 810109780#0"/>
    </vehicle>
    <vehicle id="51" depart="51.00">
        <route edges="810109556#1 810109796#1 810109796#2 810109796#3 810109788#3 810109788#4 810109788#5 810109788#6 810109801#13 810109801#14 810109801#15 810109801#16 810109801#17 810105092 810105090#0 810105090#1 810105094#0 810105094#1 810105094#2 810105094#3 810105094#4 810105094#5 810109782#0 810109782#1 810109782#2 810109782#3 810109782#4 810110094#2 810110094#3 810110047#1 810110093#4 810110093#5 810110093#6 810110093#7 810110093#8 810110088 810110090 810110022#0 810108895#0 810108895#1 810108895#2"/>
    </vehicle>
    <vehicle id="52" depart="52.00">
        <route edges="-810109607 810109793#4 810109793#5 810109793#6 810109792 810105079#0 810105079#1 810105079#2 810109780#0 810109780#1 810109780#2 810105095#3 810105095#4 810105091 810105093 810109802#0 810109802#1 810109802#2 810109802#3 810109802#4 810109788#6 810109788#7 810109788#8 810109788#9 810109788#10 810109788#11 810109788#12 -810109773#4 -810109773#3 -810109773#2 810109362#0"/>
    </vehicle>
    <vehicle id="53" depart="53.00">
        <route edges="-810108875 810105079#2 810109780#0 810109780#1 810109780#2 810105095#3 810105095#4 810105091 810105093 810109802#0 810109802#1 810109802#2 810109802#3 810109802#4 810109802#5 810109802#6 810109802#7 810109802#8 810109802#9 810109802#10 810109802#11 810109802#12 810109802#13 810109802#14 810109802#15 810110045#10 810110045#11 810110045#12 810110045#13 -810110176#1 810105402#0 810105401"/>
    </vehicle>
    <vehicle id="54" depart="54.00">
        <route edges="810105088#4 810105088#5 810105088#6 810105088#7 810105088#8 810110046#0 810110046#1 810110046#2 810110046#3 810110046#4 810110047#0 810110047#1 810110093#4 810110093#5"/>
    </vehicle>
    <vehicle id="55" depart="55.00">
        <route edges="810110040#7 810109785#1 810109785#2 810109783 810109787#0 810109787#1 -810109611#6 -810109611#5 -810109611#4 -810109611#3 -810109611#2 -810109611#1 -810109612#2 810109555#0 -810109555#0"/>
    </vehicle>
    <vehicle id="56" depart="56.00">
        <route edges="810108050 -810110042#0 810110048#0 810110048#1 810110048#2 810110048#3 810110093#5 810110093#6 810110093#7 810110093#8 810110088 810110090 810110022#0 810110022#1 810110022#2 810110022#3 810110022#4 810110022#5 810110022#6 810110021 810110020#0 810110020#1 810110020#2 810110020#3 810110027#9 -810100080#1 -810109094#1"/>
    </vehicle>
    <vehicle id="57" depart="57.00">
        <route edges="810110093#2 810110093#3 810110093#4 810110048#4 810110048#5 -810110046#4 -810110046#3 -810110046#2 -810110046#1 -810110046#0 -810105088#8 -810105088#7 -810105088#6 -810105088#5 -810105088#4 -810105088#3 -810105088#2 -810105088#1 -810105088#0 -810109524 -810109525#1 -810109525#0 -810109772 -810109773#6 -810109773#5 810109788#13 810109784 810109786#0 810109786#1 810109786#2 810110039#1 810110039#2 810110032#0 810110032#1"/>
    </vehicle>
    <vehicle id="58" depart="58.00">
        <route edges="-810109775#0 810105079#1 810105079#2 810109780#0 810109780#1 810109780#2 810105095#3 810105095#4 810105091 810105093 810109802#0 810109802#1 810109802#2 810109802#3 810109802#4 810109802#5 810109802#6 810109802#7 810109802#8 810109802#9 810109802#10 810109802#11 810109802#12 810109802#13 810109802#14 810109802#15 810110045#10 810110045#11 810110045#12 810110045#13 810110025 810109359 810109360#0"/>
    </vehicle>
    <vehicle id="59" depart="59.00">
        <route edges="810109096 810109095 810110045#13 810109773#0 810109773#1 810109773#2 810109773#3 810109773#4 810109773#5 810109773#6 810109772 810109525#0 810109525#1 810109524 810105088#0 810105088#1 810105088#2 810105088#3 810105088#4 810105088#5 810105088#6 810105088#7 810105088#8 810110046#0 810110046#1 810110046#2 810110046#3 810110046#4 810110047#0 810110047#1 810110093#4 810110093#5 810110093#6 810110093#7 810109062#0 810109062#1 810109062#2 810109060 810109061#0 810109061#1 810109061#2 810109061#3 -810109055 -810109056#0"/>
    </vehicle>
    <vehicle id="60" depart="60.00">
        <route edges="810109788#3 810109788#4 810109788#5 810109788#6 810109801#13 810109801#14 810109801#15 810109801#16 810109801#17 810105092 810105090#0 810105090#1 810105094#0 810105094#1 810105094#2 810105094#3 810105094#4 810105094#5 810109782#0 810109782#1 810109782#2 810109782#3 810109782#4 810110094#2 810110094#3 810110047#1 810110093#4 810110093#5 810110093#6 810110093#7 810110093#8 810110088 810110090 810110022#0 810108895#0 810108895#1 810108895#2"/>
    </vehicle>
    <vehicle id="61" depart="61.00">
        <route edges="810109795#1 810109795#2 810109795#3 810109795#4 810105086#0 810105086#1 810109794#0 810109794#1 810109782#0 810109782#1 810109782#2 810109782#3 810109782#4 810110094#2 810110094#3 810110047#1 810110093#4 810110093#5 810110093#6 810110093#7 810110093#8 810110088 810110090 810110022#0 810108895#0 810108895#1"/>
    </vehicle>
    <vehicle id="62" depart="62.00">
        <route edges="-810100080#1 810100080#1 810110045#0 810110045#1 810110019#0 810110019#1 810110019#2 810110019#3 810110018 810110023#0 810110023#1 -810109791#1 -810109791#0"/>
    </vehicle>
    <vehicle id="63" depart="63.00">
        <route edges="-810105089#0 810105089#0 810105089#1 810109788#2 810109788#3 810109788#4 810109788#5 810109788#6 810109801#13 810109801#14 810109801#15 810109801#16 810109801#17 810105092 810105090#0 810105090#1 810105094#0 810105094#1 810105094#2 810105094#3 810105081#4 810105088#8 810110046#0 810110046#1 810110046#2 810110046#3"/>
    </vehicle>
    <vehicle id="64" depart="64.00">
        <route edges="810110045#11 -810107039#1 810107038#1 810109799#3 810109798 810110027#4 810110027#5 810110027#6 810110027#7 810110019#1 810110019#2 810110019#3 810110018 810110023#0 810110023#1 810110023#2 810110023#3 810110023#4 810110026"/>
    </vehicle>
    <vehicle id="65" depart="65.00">
        <route edges="-810109781#1 810109781#1 -810110046#2 -810110046#1 -810110046#0 -810105088#8 -810105088#7 -810105088#6 -810105088#5 -810105088#4 -810105088#3 -810105088#2 -810105088#1 -810105088#0 -810109524 -810109525#1 -810109525#0 -810109772 -810109773#6 -810109773#5 -810109773#4 -810109773#3 -810109773#2 810109362#0 810109362#1 810109362#2 810105055#2 810109256#1 -810109255 810106039 810106038 810106037 810106036 -810106036 -810106037 -810106038"/>
    </vehicle>
    <vehicle id="66" depart="66.00">
        <route edges="810110040#9 810110039#0 810110039#1 810110039#2 810110039#3 810110039#4 810110039#5 810110039#6 810110039#7 810110039#8 810110039#9 810110093#1 810110093#2"/>
    </vehicle>
    <vehicle id="67" depart="67.00">
        <route edges="-810108811#0 810108811#0 810108811#1 -810108814 -810108812 -810108813 810108815#1 810108815#2 810108815#3 810108815#4 810110048#1 810110048#2 810110048#3 810110048#4 810110094#3 810110047#1 810110047#2 810108781 810108780"/>
    </vehicle>
    <vehicle id="68" depart="68.00">
        <route edges="-810108711 810108712#1 810109788#5 810109788#6 810109801#13 810109801#14 810109801#15 810109801#16 810109801#17 810105092 810105090#0 810105090#1 810105094#0 810105094#1 -810109780#3 -810109780#2 -810109780#1 -810109780#0 -810105079#2 -810105079#1 -810105079#0 -810109792 -810109793#6 -810109793#5 -810109793#4 -810109793#3 -810109793#2 -810109793#1 810109793#1"/>
    </vehicle>
    <vehicle id="69" depart="69.00">
        <route edges="810109788#7 810109788#8 810109788#9 810109788#10 810109788#11 810109788#12 810109773#5 810109773#6 810109772 810109525#0 810109525#1 810109524 810105088#0 810105088#1 810105088#2 810105088#3 810105088#4 810105088#5 810105088#6 810105088#7 810105088#8 810110046#0 810110046#1 810110046#2 810110046#3 810110046#4 810110047#0 810110047#1 810110047#2 810110047#3 810110047#4 810110042#0 -810110042#0 810110048#0 -810108815#4 -810108815#3 -810108815#2 -810108815#1"/>
    </vehicle>
    <vehicle id="70" depart="70.00">
        <route edges="810106099#1 -810106099#1 -810106099#0 810109801#7 810109801#8 810109801#9 810109801#10 810109801#11 810109801#12 810109801#13 810109801#14 810109801#15 810109801#16 810109801#17 810105092 810105090#0 810105090#1 810105094#0 810105094#1 810105094#2 810105094#3 810105094#4 810105094#5 810109782#0 810109782#1 810109782#2 810109782#3 810109782#4 810110094#2 810110094#3 810110047#1 810110093#4 810110093#5 810110093#6 810110093#7 810110093#8 810110088 810110090 810110022#0 810108895#0 810108895#1 810108895#2"/>
    </vehicle>
    <vehicle id="71" depart="71.00">
        <route edges="-810109606#0 810105094#3 810105081#4 810110185#0 810110185#1 810110185#2 810110185#3 810110185#4 810110185#5 810110040#6 810110040#7 810110040#8 810109786#2 810110039#1 810110039#2 810110032#0 810110032#1"/>
    </vehicle>
    <vehicle id="72" depart="72.00">
        <route edges="810100080#0 810100080#1 810110045#0 810110045#1 810110019#0 810110019#1 810110019#2 810110019#3 810110018 810110023#0 810110023#1 810110023#2 810109805#2 810109805#3 810109805#4 810109805#5 810109805#6 -810109233#3"/>
    </vehicle>
    <vehicle id="73" depart="73.00">
        <route edges="810108815#1 810108815#2 810108815#3 810108815#4 810110048#1 810110048#2 810110048#3 810110048#4 810110048#5 -810110046#4 -810110046#3 -810110046#2 -810110046#1 -810110046#0 -810105088#8 810110185#0 810110185#1 810110185#2 810110185#3 810110185#4 810110185#5 810110040#6 810110040#7 810109785#1"/>
    </vehicle>
    <vehicle id="74" depart="74.00">
        <route edges="-810109227 810109787#8 -810109673#4 810109788#4 810109788#5 810109788#6 810109801#13 810109801#14 810109801#15 810109801#16 810109801#17 810105092 810105090#0 810105090#1 -810105074#0 -810109775#2"/>
    </vehicle>
    <vehicle id="75" depart="75.00">
        <route edges="810110186#2 810110186#3 810110186#4 810110186#5 810110186#6 810110186#7 810110186#8 810110186#9 -810105088#8 -810105088#7 -810105088#6 -810105088#5 -810105088#4 -810105088#3 -810105088#2 -810105088#1 -810105088#0 -810109524 -810109525#1 -810109525#0 -810109772 -810109773#6 -810109773#5 -810109773#4 -810109773#3 -810109773#2 810109362#0 810109362#1 810109362#2 810105055#2 -810109256#0 -810109363#0 -810109365#2 810109365#2"/>
    </vehicle>
    <vehicle id="76" depart="76.00">
        <route edges="810105071 810108851#0 -810108851#0 -810105071 -810109794#0 -810105086#1 -810105086#0 -810109795#4 -810109795#3 -810109795#2 -810109795#1 -810109795#0 -810105079#2 -810105079#1 -810105079#0 -810109792 -810109793#6 -810109793#5 -810109793#4 -810109793#3 -810109793#2 -810108836#1 810108836#1"/>
    </vehicle>
    <vehicle id="77" depart="77.00">
        <route edges="-810108895#2 -810108895#1 -810108895#0 810110022#1 810110022#2 810110022#3 810110022#4 810110022#5 810110022#6 810110021 810110020#0 810110020#1 810110020#2 810110020#3 810110020#4 810110045#1 810110045#2 810110045#3 810110045#4 810110045#5 810110045#6 810110045#7 810110045#8 810110045#9 810110045#10 810110045#11 810110045#12 810110045#13 810110025 810109359 810109360#0 -810109363#1 -810109363#0 -810109349"/>
    </vehicle>
    <vehicle id="78" depart="78.00">
        <route edges="-810110032#1 -810110032#0 810110039#3 810110039#4 810110039#5 810110186#1 810110040#5 810110040#6 810110040#7 810109785#1 810109785#2 810109783 810109787#0 810109787#1 810109787#2 810109787#3 810109787#4 810109787#5 810109787#6 810109787#7 810109787#8 810109787#9 810109787#10 810109787#11 810109787#12 810110020#1 810110020#2 810110020#3 810110027#9 -810100080#1 -810109094#1 -810109094#0 810109096"/>
    </vehicle>
    <vehicle id="79" depart="79.00">
        <route edges="-810109364 810110024 810110027#0 810109611#0 810109611#1 810109611#2 810109611#3 810109611#4 810109611#5 810109611#6 810109778#0 -810109316#2 -810109316#1 -810109316#0"/>
    </vehicle>
    <vehicle id="80" depart="80.00">
        <route edges="-810108713#1 810108713#1 810109802#7 810109802#8 810109802#9 810109802#10 810109802#11 810109802#12 810109802#13 810109802#14 810109802#15 810110045#10 810110045#11 810110045#12 810110045#13 810110025 810109359 810109360#0 -810109363#1 810109256#0 810109256#1"/>
    </vehicle>
    <vehicle id="81" depart="81.00">